MODEL 1
REMARK VINA RESULT:      -7.2      0.000      0.000
REMARK  Name = CHEMBL1089536
REMARK                            x       y       z     vdW  Elec       q    Type
REMARK                         _______ _______ _______ _____ _____    ______ ____
ROOT
ATOM      1  C   LIG    1       -2.498 -14.947 -20.755  0.00  0.00    -0.264 A 
ATOM      2  C   LIG    1       -3.027 -15.004 -19.501  0.00  0.00    +0.098 A 
ATOM      3 CL   LIG    1       -3.199 -16.534 -18.698  0.00  0.00    -0.035 Cl
ATOM      4  C   LIG    1       -3.435 -13.821 -18.858  0.00  0.00    -0.215 A 
ATOM      5  C   LIG    1       -4.002 -13.678 -17.564  0.00  0.00    +0.109 A 
ATOM      6  C   LIG    1       -4.345 -12.453 -17.085  0.00  0.00    +0.018 A 
ATOM      7  C   LIG    1       -4.151 -11.293 -17.843  0.00  0.00    +0.331 A 
ATOM      8  O   LIG    1       -4.503 -10.079 -17.342  0.00  0.00    -0.622 OA
ATOM      9  C   LIG    1       -3.600 -11.393 -19.108  0.00  0.00    -0.165 A 
ATOM     10  C   LIG    1       -3.250 -12.632 -19.601  0.00  0.00    +0.011 A 
ATOM     11  S   LIG    1       -2.530 -13.201 -21.121  0.00  0.00    +0.114 S 
ENDROOT
BRANCH   9  12
ATOM     12  N   LIG    1       -3.387 -10.178 -19.927  0.00  0.00    +0.062 N 
ATOM     13  O   LIG    1       -4.060  -9.990 -20.914  0.00  0.00    -0.160 OA
ATOM     14  O   LIG    1       -2.541  -9.375 -19.609  0.00  0.00    -0.161 OA
ENDBRANCH   9  12
BRANCH   1  15
ATOM     15  C   LIG    1       -2.017 -16.047 -21.595  0.00  0.00    +0.560 C 
ATOM     16  O   LIG    1       -0.920 -15.980 -22.115  0.00  0.00    -0.490 OA
BRANCH  15  17
ATOM     17  O   LIG    1       -2.791 -17.135 -21.790  0.00  0.00    -0.340 OA
BRANCH  17  18
ATOM     18  C   LIG    1       -4.150 -16.905 -22.169  0.00  0.00    +0.267 C 
BRANCH  18  22
ATOM     19  C   LIG    1       -6.462 -20.409 -21.378  0.00  0.00    +0.013 A 
ATOM     20  C   LIG    1       -5.451 -20.037 -20.511  0.00  0.00    +0.001 A 
ATOM     21  C   LIG    1       -4.703 -18.904 -20.767  0.00  0.00    +0.031 A 
ATOM     22  C   LIG    1       -4.964 -18.142 -21.890  0.00  0.00    -0.096 A 
ATOM     23  C   LIG    1       -5.976 -18.513 -22.757  0.00  0.00    +0.031 A 
ATOM     24  C   LIG    1       -6.725 -19.646 -22.501  0.00  0.00    +0.002 A 
ENDBRANCH  18  22
ENDBRANCH  17  18
ENDBRANCH  15  17
ENDBRANCH   1  15
BRANCH   6  25
ATOM     25  O   LIG    1       -4.888 -12.352 -15.841  0.00  0.00    -0.478 OA
ATOM     26  H   LIG    1       -5.304 -11.499 -15.662  0.00  0.00    +0.378 HD
ENDBRANCH   6  25
TORSDOF 6
ENDMDL
MODEL 2
REMARK VINA RESULT:      -6.8     10.806     13.147
REMARK  Name = CHEMBL1089536
REMARK                            x       y       z     vdW  Elec       q    Type
REMARK                         _______ _______ _______ _____ _____    ______ ____
ROOT
ATOM      1  C   LIG    1        6.069  -7.245 -19.277  0.00  0.00    -0.264 A 
ATOM      2  C   LIG    1        6.732  -6.199 -19.844  0.00  0.00    +0.098 A 
ATOM      3 CL   LIG    1        7.129  -6.235 -21.534  0.00  0.00    -0.035 Cl
ATOM      4  C   LIG    1        7.096  -5.090 -19.059  0.00  0.00    -0.215 A 
ATOM      5  C   LIG    1        7.784  -3.916 -19.465  0.00  0.00    +0.109 A 
ATOM      6  C   LIG    1        8.062  -2.928 -18.573  0.00  0.00    +0.018 A 
ATOM      7  C   LIG    1        7.683  -3.029 -17.230  0.00  0.00    +0.331 A 
ATOM      8  O   LIG    1        7.973  -2.027 -16.358  0.00  0.00    -0.622 OA
ATOM      9  C   LIG    1        7.010  -4.158 -16.798  0.00  0.00    -0.165 A 
ATOM     10  C   LIG    1        6.725  -5.165 -17.696  0.00  0.00    +0.011 A 
ATOM     11  S   LIG    1        5.901  -6.733 -17.576  0.00  0.00    +0.114 S 
ENDROOT
BRANCH   9  12
ATOM     12  N   LIG    1        6.600  -4.285 -15.382  0.00  0.00    +0.062 N 
ATOM     13  O   LIG    1        5.780  -3.526 -14.920  0.00  0.00    -0.160 OA
ATOM     14  O   LIG    1        7.085  -5.147 -14.687  0.00  0.00    -0.161 OA
ENDBRANCH   9  12
BRANCH   1  15
ATOM     15  C   LIG    1        5.603  -8.482 -19.908  0.00  0.00    +0.560 C 
ATOM     16  O   LIG    1        6.407  -9.321 -20.267  0.00  0.00    -0.490 OA
BRANCH  15  17
ATOM     17  O   LIG    1        4.283  -8.690 -20.092  0.00  0.00    -0.340 OA
BRANCH  17  18
ATOM     18  C   LIG    1        3.510  -7.582 -20.559  0.00  0.00    +0.267 C 
BRANCH  18  22
ATOM     19  C   LIG    1       -0.558  -8.790 -21.051  0.00  0.00    +0.013 A 
ATOM     20  C   LIG    1        0.395  -9.712 -20.657  0.00  0.00    +0.001 A 
ATOM     21  C   LIG    1        1.711  -9.321 -20.499  0.00  0.00    +0.031 A 
ATOM     22  C   LIG    1        2.075  -8.009 -20.734  0.00  0.00    -0.096 A 
ATOM     23  C   LIG    1        1.123  -7.086 -21.128  0.00  0.00    +0.031 A 
ATOM     24  C   LIG    1       -0.193  -7.477 -21.285  0.00  0.00    +0.002 A 
ENDBRANCH  18  22
ENDBRANCH  17  18
ENDBRANCH  15  17
ENDBRANCH   1  15
BRANCH   6  25
ATOM     25  O   LIG    1        8.724  -1.817 -18.997  0.00  0.00    -0.478 OA
ATOM     26  H   LIG    1        8.262  -1.324 -19.688  0.00  0.00    +0.378 HD
ENDBRANCH   6  25
TORSDOF 6
ENDMDL
MODEL 3
REMARK VINA RESULT:      -6.2     10.966     13.205
REMARK  Name = CHEMBL1089536
REMARK                            x       y       z     vdW  Elec       q    Type
REMARK                         _______ _______ _______ _____ _____    ______ ____
ROOT
ATOM      1  C   LIG    1        6.497  -6.878 -20.075  0.00  0.00    -0.264 A 
ATOM      2  C   LIG    1        6.299  -6.836 -18.728  0.00  0.00    +0.098 A 
ATOM      3 CL   LIG    1        5.607  -8.202 -17.908  0.00  0.00    -0.035 Cl
ATOM      4  C   LIG    1        6.654  -5.685 -18.002  0.00  0.00    -0.215 A 
ATOM      5  C   LIG    1        6.526  -5.454 -16.607  0.00  0.00    +0.109 A 
ATOM      6  C   LIG    1        6.921  -4.275 -16.057  0.00  0.00    +0.018 A 
ATOM      7  C   LIG    1        7.466  -3.251 -16.838  0.00  0.00    +0.331 A 
ATOM      8  O   LIG    1        7.852  -2.081 -16.264  0.00  0.00    -0.622 OA
ATOM      9  C   LIG    1        7.607  -3.440 -18.202  0.00  0.00    -0.165 A 
ATOM     10  C   LIG    1        7.208  -4.633 -18.768  0.00  0.00    +0.011 A 
ATOM     11  S   LIG    1        7.215  -5.281 -20.421  0.00  0.00    +0.114 S 
ENDROOT
BRANCH   9  12
ATOM     12  N   LIG    1        8.181  -2.369 -19.047  0.00  0.00    +0.062 N 
ATOM     13  O   LIG    1        9.379  -2.274 -19.170  0.00  0.00    -0.160 OA
ATOM     14  O   LIG    1        7.450  -1.591 -19.615  0.00  0.00    -0.161 OA
ENDBRANCH   9  12
BRANCH   1  15
ATOM     15  C   LIG    1        6.199  -7.967 -21.009  0.00  0.00    +0.560 C 
ATOM     16  O   LIG    1        7.052  -8.794 -21.271  0.00  0.00    -0.490 OA
BRANCH  15  17
ATOM     17  O   LIG    1        4.980  -8.052 -21.580  0.00  0.00    -0.340 OA
BRANCH  17  18
ATOM     18  C   LIG    1        4.059  -6.994 -21.303  0.00  0.00    +0.267 C 
BRANCH  18  22
ATOM     19  C   LIG    1        0.149  -8.619 -20.736  0.00  0.00    +0.013 A 
ATOM     20  C   LIG    1        1.265  -9.392 -20.470  0.00  0.00    +0.001 A 
ATOM     21  C   LIG    1        2.530  -8.866 -20.654  0.00  0.00    +0.031 A 
ATOM     22  C   LIG    1        2.680  -7.568 -21.104  0.00  0.00    -0.096 A 
ATOM     23  C   LIG    1        1.565  -6.794 -21.370  0.00  0.00    +0.031 A 
ATOM     24  C   LIG    1        0.300  -7.320 -21.185  0.00  0.00    +0.002 A 
ENDBRANCH  18  22
ENDBRANCH  17  18
ENDBRANCH  15  17
ENDBRANCH   1  15
BRANCH   6  25
ATOM     25  O   LIG    1        6.783  -4.088 -14.715  0.00  0.00    -0.478 OA
ATOM     26  H   LIG    1        5.896  -4.280 -14.382  0.00  0.00    +0.378 HD
ENDBRANCH   6  25
TORSDOF 6
ENDMDL
MODEL 4
REMARK VINA RESULT:      -6.1      4.132      6.977
REMARK  Name = CHEMBL1089536
REMARK                            x       y       z     vdW  Elec       q    Type
REMARK                         _______ _______ _______ _____ _____    ______ ____
ROOT
ATOM      1  C   LIG    1       -3.122 -12.426 -22.475  0.00  0.00    -0.264 A 
ATOM      2  C   LIG    1       -3.611 -11.669 -21.453  0.00  0.00    +0.098 A 
ATOM      3 CL   LIG    1       -4.137 -10.042 -21.751  0.00  0.00    -0.035 Cl
ATOM      4  C   LIG    1       -3.688 -12.208 -20.155  0.00  0.00    -0.215 A 
ATOM      5  C   LIG    1       -4.163 -11.581 -18.973  0.00  0.00    +0.109 A 
ATOM      6  C   LIG    1       -4.170 -12.246 -17.787  0.00  0.00    +0.018 A 
ATOM      7  C   LIG    1       -3.714 -13.565 -17.687  0.00  0.00    +0.331 A 
ATOM      8  O   LIG    1       -3.730 -14.207 -16.489  0.00  0.00    -0.622 OA
ATOM      9  C   LIG    1       -3.243 -14.208 -18.818  0.00  0.00    -0.165 A 
ATOM     10  C   LIG    1       -3.232 -13.540 -20.025  0.00  0.00    +0.011 A 
ATOM     11  S   LIG    1       -2.737 -13.973 -21.674  0.00  0.00    +0.114 S 
ENDROOT
BRANCH   9  12
ATOM     12  N   LIG    1       -2.755 -15.603 -18.734  0.00  0.00    +0.062 N 
ATOM     13  O   LIG    1       -1.634 -15.827 -18.342  0.00  0.00    -0.160 OA
ATOM     14  O   LIG    1       -3.477 -16.517 -19.056  0.00  0.00    -0.161 OA
ENDBRANCH   9  12
BRANCH   1  15
ATOM     15  C   LIG    1       -2.958 -12.062 -23.884  0.00  0.00    +0.560 C 
ATOM     16  O   LIG    1       -3.499 -12.722 -24.750  0.00  0.00    -0.490 OA
BRANCH  15  17
ATOM     17  O   LIG    1       -2.206 -10.994 -24.221  0.00  0.00    -0.340 OA
BRANCH  17  18
ATOM     18  C   LIG    1       -0.856 -10.977 -23.753  0.00  0.00    +0.267 C 
BRANCH  18  22
ATOM     19  C   LIG    1       -0.409  -7.912 -20.810  0.00  0.00    +0.013 A 
ATOM     20  C   LIG    1       -0.122  -9.226 -20.489  0.00  0.00    +0.001 A 
ATOM     21  C   LIG    1       -0.267 -10.218 -21.441  0.00  0.00    +0.031 A 
ATOM     22  C   LIG    1       -0.699  -9.896 -22.714  0.00  0.00    -0.096 A 
ATOM     23  C   LIG    1       -0.986  -8.582 -23.036  0.00  0.00    +0.031 A 
ATOM     24  C   LIG    1       -0.840  -7.590 -22.084  0.00  0.00    +0.002 A 
ENDBRANCH  18  22
ENDBRANCH  17  18
ENDBRANCH  15  17
ENDBRANCH   1  15
BRANCH   6  25
ATOM     25  O   LIG    1       -4.632 -11.615 -16.673  0.00  0.00    -0.478 OA
ATOM     26  H   LIG    1       -5.574 -11.402 -16.705  0.00  0.00    +0.378 HD
ENDBRANCH   6  25
TORSDOF 6
ENDMDL
MODEL 5
REMARK VINA RESULT:      -6.1      5.124      7.174
REMARK  Name = CHEMBL1089536
REMARK                            x       y       z     vdW  Elec       q    Type
REMARK                         _______ _______ _______ _____ _____    ______ ____
ROOT
ATOM      1  C   LIG    1       -0.525 -11.456 -21.954  0.00  0.00    -0.264 A 
ATOM      2  C   LIG    1       -0.688 -10.145 -21.623  0.00  0.00    +0.098 A 
ATOM      3 CL   LIG    1       -2.282  -9.500 -21.386  0.00  0.00    -0.035 Cl
ATOM      4  C   LIG    1        0.437  -9.314 -21.474  0.00  0.00    -0.215 A 
ATOM      5  C   LIG    1        0.470  -7.935 -21.135  0.00  0.00    +0.109 A 
ATOM      6  C   LIG    1        1.652  -7.272 -21.030  0.00  0.00    +0.018 A 
ATOM      7  C   LIG    1        2.874  -7.918 -21.249  0.00  0.00    +0.331 A 
ATOM      8  O   LIG    1        4.042  -7.231 -21.139  0.00  0.00    -0.622 OA
ATOM      9  C   LIG    1        2.881  -9.261 -21.580  0.00  0.00    -0.165 A 
ATOM     10  C   LIG    1        1.687  -9.941 -21.689  0.00  0.00    +0.011 A 
ATOM     11  S   LIG    1        1.248 -11.618 -22.074  0.00  0.00    +0.114 S 
ENDROOT
BRANCH   9  12
ATOM     12  N   LIG    1        4.163  -9.963 -21.817  0.00  0.00    +0.062 N 
ATOM     13  O   LIG    1        4.680  -9.924 -22.909  0.00  0.00    -0.160 OA
ATOM     14  O   LIG    1        4.692 -10.575 -20.919  0.00  0.00    -0.161 OA
ENDBRANCH   9  12
BRANCH   1  15
ATOM     15  C   LIG    1       -1.551 -12.482 -22.157  0.00  0.00    +0.560 C 
ATOM     16  O   LIG    1       -2.158 -12.535 -23.209  0.00  0.00    -0.490 OA
BRANCH  15  17
ATOM     17  O   LIG    1       -1.822 -13.368 -21.177  0.00  0.00    -0.340 OA
BRANCH  17  18
ATOM     18  C   LIG    1       -3.198 -13.678 -20.945  0.00  0.00    +0.267 C 
BRANCH  18  22
ATOM     19  C   LIG    1       -4.255 -12.570 -16.957  0.00  0.00    +0.013 A 
ATOM     20  C   LIG    1       -4.308 -11.632 -17.972  0.00  0.00    +0.001 A 
ATOM     21  C   LIG    1       -3.965 -11.991 -19.262  0.00  0.00    +0.031 A 
ATOM     22  C   LIG    1       -3.570 -13.286 -19.538  0.00  0.00    -0.096 A 
ATOM     23  C   LIG    1       -3.518 -14.224 -18.523  0.00  0.00    +0.031 A 
ATOM     24  C   LIG    1       -3.861 -13.866 -17.233  0.00  0.00    +0.002 A 
ENDBRANCH  18  22
ENDBRANCH  17  18
ENDBRANCH  15  17
ENDBRANCH   1  15
BRANCH   6  25
ATOM     25  O   LIG    1        1.647  -5.950 -20.704  0.00  0.00    -0.478 OA
ATOM     26  H   LIG    1        1.456  -5.364 -21.448  0.00  0.00    +0.378 HD
ENDBRANCH   6  25
TORSDOF 6
ENDMDL
MODEL 6
REMARK VINA RESULT:      -6.1      5.053      7.260
REMARK  Name = CHEMBL1089536
REMARK                            x       y       z     vdW  Elec       q    Type
REMARK                         _______ _______ _______ _____ _____    ______ ____
ROOT
ATOM      1  C   LIG    1       -2.754  -9.521 -22.408  0.00  0.00    -0.264 A 
ATOM      2  C   LIG    1       -1.902  -9.016 -21.472  0.00  0.00    +0.098 A 
ATOM      3 CL   LIG    1       -2.051  -9.498 -19.810  0.00  0.00    -0.035 Cl
ATOM      4  C   LIG    1       -0.902  -8.104 -21.854  0.00  0.00    -0.215 A 
ATOM      5  C   LIG    1        0.071  -7.475 -21.032  0.00  0.00    +0.109 A 
ATOM      6  C   LIG    1        0.976  -6.609 -21.562  0.00  0.00    +0.018 A 
ATOM      7  C   LIG    1        0.984  -6.307 -22.928  0.00  0.00    +0.331 A 
ATOM      8  O   LIG    1        1.899  -5.438 -23.432  0.00  0.00    -0.622 OA
ATOM      9  C   LIG    1        0.052  -6.902 -23.760  0.00  0.00    -0.165 A 
ATOM     10  C   LIG    1       -0.870  -7.780 -23.230  0.00  0.00    +0.011 A 
ATOM     11  S   LIG    1       -2.196  -8.743 -23.913  0.00  0.00    +0.114 S 
ENDROOT
BRANCH   9  12
ATOM     12  N   LIG    1        0.043  -6.596 -25.208  0.00  0.00    +0.062 N 
ATOM     13  O   LIG    1        0.677  -7.283 -25.974  0.00  0.00    -0.160 OA
ATOM     14  O   LIG    1       -0.599  -5.659 -25.624  0.00  0.00    -0.161 OA
ENDBRANCH   9  12
BRANCH   1  15
ATOM     15  C   LIG    1       -3.853 -10.472 -22.224  0.00  0.00    +0.560 C 
ATOM     16  O   LIG    1       -4.693 -10.606 -23.094  0.00  0.00    -0.490 OA
BRANCH  15  17
ATOM     17  O   LIG    1       -3.934 -11.199 -21.091  0.00  0.00    -0.340 OA
BRANCH  17  18
ATOM     18  C   LIG    1       -3.317 -12.488 -21.102  0.00  0.00    +0.267 C 
BRANCH  18  22
ATOM     19  C   LIG    1       -3.802 -14.329 -17.278  0.00  0.00    +0.013 A 
ATOM     20  C   LIG    1       -3.239 -15.041 -18.322  0.00  0.00    +0.001 A 
ATOM     21  C   LIG    1       -3.083 -14.445 -19.559  0.00  0.00    +0.031 A 
ATOM     22  C   LIG    1       -3.489 -13.139 -19.753  0.00  0.00    -0.096 A 
ATOM     23  C   LIG    1       -4.052 -12.427 -18.710  0.00  0.00    +0.031 A 
ATOM     24  C   LIG    1       -4.208 -13.022 -17.472  0.00  0.00    +0.002 A 
ENDBRANCH  18  22
ENDBRANCH  17  18
ENDBRANCH  15  17
ENDBRANCH   1  15
BRANCH   6  25
ATOM     25  O   LIG    1        1.893  -6.024 -20.744  0.00  0.00    -0.478 OA
ATOM     26  H   LIG    1        1.508  -5.444 -20.074  0.00  0.00    +0.378 HD
ENDBRANCH   6  25
TORSDOF 6
ENDMDL
MODEL 7
REMARK VINA RESULT:      -6.1      9.367     12.901
REMARK  Name = CHEMBL1089536
REMARK                            x       y       z     vdW  Elec       q    Type
REMARK                         _______ _______ _______ _____ _____    ______ ____
ROOT
ATOM      1  C   LIG    1        4.988  -8.380 -19.966  0.00  0.00    -0.264 A 
ATOM      2  C   LIG    1        4.576  -7.293 -20.677  0.00  0.00    +0.098 A 
ATOM      3 CL   LIG    1        5.705  -6.036 -21.074  0.00  0.00    -0.035 Cl
ATOM      4  C   LIG    1        3.235  -7.191 -21.088  0.00  0.00    -0.215 A 
ATOM      5  C   LIG    1        2.622  -6.146 -21.830  0.00  0.00    +0.109 A 
ATOM      6  C   LIG    1        1.302  -6.200 -22.149  0.00  0.00    +0.018 A 
ATOM      7  C   LIG    1        0.501  -7.280 -21.762  0.00  0.00    +0.331 A 
ATOM      8  O   LIG    1       -0.817  -7.309 -22.093  0.00  0.00    -0.622 OA
ATOM      9  C   LIG    1        1.063  -8.317 -21.039  0.00  0.00    -0.165 A 
ATOM     10  C   LIG    1        2.401  -8.270 -20.711  0.00  0.00    +0.011 A 
ATOM     11  S   LIG    1        3.498  -9.353 -19.829  0.00  0.00    +0.114 S 
ENDROOT
BRANCH   9  12
ATOM     12  N   LIG    1        0.233  -9.469 -20.619  0.00  0.00    +0.062 N 
ATOM     13  O   LIG    1       -0.517  -9.361 -19.677  0.00  0.00    -0.160 OA
ATOM     14  O   LIG    1        0.305 -10.516 -21.219  0.00  0.00    -0.161 OA
ENDBRANCH   9  12
BRANCH   1  15
ATOM     15  C   LIG    1        6.324  -8.679 -19.446  0.00  0.00    +0.560 C 
ATOM     16  O   LIG    1        6.929  -9.654 -19.849  0.00  0.00    -0.490 OA
BRANCH  15  17
ATOM     17  O   LIG    1        6.884  -7.873 -18.520  0.00  0.00    -0.340 OA
BRANCH  17  18
ATOM     18  C   LIG    1        6.028  -7.383 -17.485  0.00  0.00    +0.267 C 
BRANCH  18  22
ATOM     19  C   LIG    1        7.241  -3.436 -16.391  0.00  0.00    +0.013 A 
ATOM     20  C   LIG    1        6.820  -4.324 -15.419  0.00  0.00    +0.001 A 
ATOM     21  C   LIG    1        6.427  -5.601 -15.773  0.00  0.00    +0.031 A 
ATOM     22  C   LIG    1        6.455  -5.990 -17.099  0.00  0.00    -0.096 A 
ATOM     23  C   LIG    1        6.876  -5.102 -18.071  0.00  0.00    +0.031 A 
ATOM     24  C   LIG    1        7.270  -3.826 -17.717  0.00  0.00    +0.002 A 
ENDBRANCH  18  22
ENDBRANCH  17  18
ENDBRANCH  15  17
ENDBRANCH   1  15
BRANCH   6  25
ATOM     25  O   LIG    1        0.747  -5.180 -22.859  0.00  0.00    -0.478 OA
ATOM     26  H   LIG    1        1.358  -4.455 -23.048  0.00  0.00    +0.378 HD
ENDBRANCH   6  25
TORSDOF 6
ENDMDL
MODEL 8
REMARK VINA RESULT:      -5.9      3.590      7.692
REMARK  Name = CHEMBL1089536
REMARK                            x       y       z     vdW  Elec       q    Type
REMARK                         _______ _______ _______ _____ _____    ______ ____
ROOT
ATOM      1  C   LIG    1       -4.016 -16.134 -22.314  0.00  0.00    -0.264 A 
ATOM      2  C   LIG    1       -4.357 -17.353 -21.810  0.00  0.00    +0.098 A 
ATOM      3 CL   LIG    1       -3.422 -18.056 -20.527  0.00  0.00    -0.035 Cl
ATOM      4  C   LIG    1       -5.466 -18.043 -22.333  0.00  0.00    -0.215 A 
ATOM      5  C   LIG    1       -5.973 -19.310 -21.943  0.00  0.00    +0.109 A 
ATOM      6  C   LIG    1       -7.066 -19.842 -22.554  0.00  0.00    +0.018 A 
ATOM      7  C   LIG    1       -7.728 -19.164 -23.583  0.00  0.00    +0.331 A 
ATOM      8  O   LIG    1       -8.817 -19.718 -24.179  0.00  0.00    -0.622 OA
ATOM      9  C   LIG    1       -7.263 -17.926 -23.989  0.00  0.00    -0.165 A 
ATOM     10  C   LIG    1       -6.156 -17.380 -23.375  0.00  0.00    +0.011 A 
ATOM     11  S   LIG    1       -5.254 -15.864 -23.571  0.00  0.00    +0.114 S 
ENDROOT
BRANCH   9  12
ATOM     12  N   LIG    1       -7.949 -17.193 -25.077  0.00  0.00    +0.062 N 
ATOM     13  O   LIG    1       -8.839 -16.418 -24.815  0.00  0.00    -0.160 OA
ATOM     14  O   LIG    1       -7.618 -17.368 -26.227  0.00  0.00    -0.161 OA
ENDBRANCH   9  12
BRANCH   1  15
ATOM     15  C   LIG    1       -2.910 -15.259 -21.919  0.00  0.00    +0.560 C 
ATOM     16  O   LIG    1       -1.795 -15.448 -22.366  0.00  0.00    -0.490 OA
BRANCH  15  17
ATOM     17  O   LIG    1       -3.128 -14.243 -21.059  0.00  0.00    -0.340 OA
BRANCH  17  18
ATOM     18  C   LIG    1       -3.116 -14.559 -19.665  0.00  0.00    +0.267 C 
BRANCH  18  22
ATOM     19  C   LIG    1       -4.418 -11.162 -17.426  0.00  0.00    +0.013 A 
ATOM     20  C   LIG    1       -4.446 -12.420 -16.852  0.00  0.00    +0.001 A 
ATOM     21  C   LIG    1       -4.025 -13.519 -17.577  0.00  0.00    +0.031 A 
ATOM     22  C   LIG    1       -3.576 -13.361 -18.875  0.00  0.00    -0.096 A 
ATOM     23  C   LIG    1       -3.548 -12.103 -19.449  0.00  0.00    +0.031 A 
ATOM     24  C   LIG    1       -3.968 -11.003 -18.723  0.00  0.00    +0.002 A 
ENDBRANCH  18  22
ENDBRANCH  17  18
ENDBRANCH  15  17
ENDBRANCH   1  15
BRANCH   6  25
ATOM     25  O   LIG    1       -7.524 -21.060 -22.155  0.00  0.00    -0.478 OA
ATOM     26  H   LIG    1       -6.867 -21.593 -21.689  0.00  0.00    +0.378 HD
ENDBRANCH   6  25
TORSDOF 6
ENDMDL
MODEL 9
REMARK VINA RESULT:      -5.8      2.501      3.607
REMARK  Name = CHEMBL1089536
REMARK                            x       y       z     vdW  Elec       q    Type
REMARK                         _______ _______ _______ _____ _____    ______ ____
ROOT
ATOM      1  C   LIG    1       -2.546 -15.088 -21.222  0.00  0.00    -0.264 A 
ATOM      2  C   LIG    1       -3.027 -15.234 -19.956  0.00  0.00    +0.098 A 
ATOM      3 CL   LIG    1       -3.248 -16.821 -19.287  0.00  0.00    -0.035 Cl
ATOM      4  C   LIG    1       -3.345 -14.097 -19.191  0.00  0.00    -0.215 A 
ATOM      5  C   LIG    1       -3.852 -14.046 -17.866  0.00  0.00    +0.109 A 
ATOM      6  C   LIG    1       -4.110 -12.854 -17.264  0.00  0.00    +0.018 A 
ATOM      7  C   LIG    1       -3.885 -11.640 -17.923  0.00  0.00    +0.331 A 
ATOM      8  O   LIG    1       -4.152 -10.462 -17.299  0.00  0.00    -0.622 OA
ATOM      9  C   LIG    1       -3.391 -11.651 -19.215  0.00  0.00    -0.165 A 
ATOM     10  C   LIG    1       -3.127 -12.855 -19.833  0.00  0.00    +0.011 A 
ATOM     11  S   LIG    1       -2.500 -13.316 -21.428  0.00  0.00    +0.114 S 
ENDROOT
BRANCH   9  12
ATOM     12  N   LIG    1       -3.146 -10.378 -19.930  0.00  0.00    +0.062 N 
ATOM     13  O   LIG    1       -2.193  -9.694 -19.638  0.00  0.00    -0.160 OA
ATOM     14  O   LIG    1       -3.900 -10.022 -20.806  0.00  0.00    -0.161 OA
ENDBRANCH   9  12
BRANCH   1  15
ATOM     15  C   LIG    1       -2.158 -16.129 -22.177  0.00  0.00    +0.560 C 
ATOM     16  O   LIG    1       -2.449 -16.014 -23.353  0.00  0.00    -0.490 OA
BRANCH  15  17
ATOM     17  O   LIG    1       -1.478 -17.214 -21.753  0.00  0.00    -0.340 OA
BRANCH  17  18
ATOM     18  C   LIG    1       -0.142 -17.002 -21.290  0.00  0.00    +0.267 C 
BRANCH  18  22
ATOM     19  C   LIG    1        1.228 -20.498 -19.253  0.00  0.00    +0.013 A 
ATOM     20  C   LIG    1       -0.126 -20.227 -19.326  0.00  0.00    +0.001 A 
ATOM     21  C   LIG    1       -0.569 -19.095 -19.985  0.00  0.00    +0.031 A 
ATOM     22  C   LIG    1        0.341 -18.235 -20.570  0.00  0.00    -0.096 A 
ATOM     23  C   LIG    1        1.695 -18.507 -20.498  0.00  0.00    +0.031 A 
ATOM     24  C   LIG    1        2.137 -19.639 -19.840  0.00  0.00    +0.002 A 
ENDBRANCH  18  22
ENDBRANCH  17  18
ENDBRANCH  15  17
ENDBRANCH   1  15
BRANCH   6  25
ATOM     25  O   LIG    1       -4.597 -12.842 -15.993  0.00  0.00    -0.478 OA
ATOM     26  H   LIG    1       -4.733 -13.721 -15.617  0.00  0.00    +0.378 HD
ENDBRANCH   6  25
TORSDOF 6
ENDMDL
