MODEL 1
REMARK VINA RESULT:      -6.5      0.000      0.000
REMARK  Name = CHEMBL1091981
REMARK                            x       y       z     vdW  Elec       q    Type
REMARK                         _______ _______ _______ _____ _____    ______ ____
ROOT
ATOM      1  C   LIG    1        6.348  -7.195 -19.358  0.00  0.00    -0.267 A 
ATOM      2  C   LIG    1        6.951  -6.090 -19.879  0.00  0.00    +0.099 A 
ATOM      3 CL   LIG    1        7.383  -6.045 -21.559  0.00  0.00    -0.034 Cl
ATOM      4  C   LIG    1        7.222  -4.985 -19.051  0.00  0.00    -0.216 A 
ATOM      5  C   LIG    1        7.839  -3.756 -19.406  0.00  0.00    +0.109 A 
ATOM      6  C   LIG    1        8.030  -2.779 -18.478  0.00  0.00    +0.018 A 
ATOM      7  C   LIG    1        7.631  -2.948 -17.148  0.00  0.00    +0.331 A 
ATOM      8  O   LIG    1        7.835  -1.958 -16.241  0.00  0.00    -0.621 OA
ATOM      9  C   LIG    1        7.027  -4.133 -16.766  0.00  0.00    -0.165 A 
ATOM     10  C   LIG    1        6.829  -5.127 -17.700  0.00  0.00    +0.011 A 
ATOM     11  S   LIG    1        6.110  -6.750 -17.646  0.00  0.00    +0.119 S 
ENDROOT
BRANCH   9  12
ATOM     12  N   LIG    1        6.598  -4.332 -15.364  0.00  0.00    +0.062 N 
ATOM     13  O   LIG    1        7.058  -5.241 -14.714  0.00  0.00    -0.160 OA
ATOM     14  O   LIG    1        5.786  -3.584 -14.868  0.00  0.00    -0.161 OA
ENDBRANCH   9  12
BRANCH   1  15
ATOM     15  C   LIG    1        5.980  -8.440 -20.037  0.00  0.00    +0.559 C 
ATOM     16  O   LIG    1        6.636  -9.447 -19.858  0.00  0.00    -0.479 OA
BRANCH  15  17
ATOM     17  O   LIG    1        4.913  -8.468 -20.862  0.00  0.00    -0.344 OA
BRANCH  17  18
ATOM     18  C   LIG    1        3.620  -8.459 -20.254  0.00  0.00    +0.392 C 
ATOM     19  C   LIG    1        3.369  -9.803 -19.567  0.00  0.00    +0.082 C 
BRANCH  18  20
ATOM     20  O   LIG    1        2.624  -8.242 -21.255  0.00  0.00    -0.355 OA
BRANCH  20  21
ATOM     21  C   LIG    1        1.695  -7.308 -20.998  0.00  0.00    +0.456 C 
ATOM     22  O   LIG    1        2.030  -6.215 -20.605  0.00  0.00    -0.483 OA
BRANCH  21  23
ATOM     23  C   LIG    1        0.235  -7.620 -21.200  0.00  0.00    +0.095 C 
BRANCH  23  25
ATOM     24  C   LIG    1       -1.481  -8.905 -19.915  0.00  0.00    +0.021 C 
ATOM     25  C   LIG    1       -0.092  -8.969 -20.555  0.00  0.00    +0.030 C 
ENDBRANCH  23  25
ENDBRANCH  21  23
ENDBRANCH  20  21
ENDBRANCH  18  20
ENDBRANCH  17  18
ENDBRANCH  15  17
ENDBRANCH   1  15
BRANCH   6  26
ATOM     26  O   LIG    1        8.625  -1.614 -18.853  0.00  0.00    -0.478 OA
ATOM     27  H   LIG    1        8.651  -0.945 -18.156  0.00  0.00    +0.378 HD
ENDBRANCH   6  26
TORSDOF 9
ENDMDL
MODEL 2
REMARK VINA RESULT:      -5.9      1.754      2.717
REMARK  Name = CHEMBL1091981
REMARK                            x       y       z     vdW  Elec       q    Type
REMARK                         _______ _______ _______ _____ _____    ______ ____
ROOT
ATOM      1  C   LIG    1        6.455  -7.044 -20.450  0.00  0.00    -0.267 A 
ATOM      2  C   LIG    1        6.301  -7.211 -19.106  0.00  0.00    +0.099 A 
ATOM      3 CL   LIG    1        5.699  -8.714 -18.481  0.00  0.00    -0.034 Cl
ATOM      4  C   LIG    1        6.631  -6.163 -18.229  0.00  0.00    -0.216 A 
ATOM      5  C   LIG    1        6.539  -6.146 -16.811  0.00  0.00    +0.109 A 
ATOM      6  C   LIG    1        6.902  -5.043 -16.103  0.00  0.00    +0.018 A 
ATOM      7  C   LIG    1        7.373  -3.890 -16.739  0.00  0.00    +0.331 A 
ATOM      8  O   LIG    1        7.728  -2.800 -16.008  0.00  0.00    -0.621 OA
ATOM      9  C   LIG    1        7.477  -3.869 -18.118  0.00  0.00    -0.165 A 
ATOM     10  C   LIG    1        7.112  -4.983 -18.844  0.00  0.00    +0.011 A 
ATOM     11  S   LIG    1        7.090  -5.381 -20.574  0.00  0.00    +0.119 S 
ENDROOT
BRANCH   9  12
ATOM     12  N   LIG    1        7.973  -2.659 -18.811  0.00  0.00    +0.062 N 
ATOM     13  O   LIG    1        9.155  -2.532 -19.032  0.00  0.00    -0.160 OA
ATOM     14  O   LIG    1        7.197  -1.799 -19.155  0.00  0.00    -0.161 OA
ENDBRANCH   9  12
BRANCH   1  15
ATOM     15  C   LIG    1        6.174  -7.996 -21.527  0.00  0.00    +0.559 C 
ATOM     16  O   LIG    1        6.969  -8.880 -21.779  0.00  0.00    -0.479 OA
BRANCH  15  17
ATOM     17  O   LIG    1        5.034  -7.892 -22.239  0.00  0.00    -0.344 OA
BRANCH  17  18
ATOM     18  C   LIG    1        3.812  -8.174 -21.554  0.00  0.00    +0.392 C 
ATOM     19  C   LIG    1        3.607  -9.687 -21.476  0.00  0.00    +0.082 C 
BRANCH  18  20
ATOM     20  O   LIG    1        2.720  -7.581 -22.263  0.00  0.00    -0.355 OA
BRANCH  20  21
ATOM     21  C   LIG    1        1.746  -7.025 -21.526  0.00  0.00    +0.456 C 
ATOM     22  O   LIG    1        2.027  -6.346 -20.567  0.00  0.00    -0.483 OA
BRANCH  21  23
ATOM     23  C   LIG    1        0.302  -7.246 -21.895  0.00  0.00    +0.095 C 
BRANCH  23  25
ATOM     24  C   LIG    1        0.039  -9.345 -20.564  0.00  0.00    +0.021 C 
ATOM     25  C   LIG    1       -0.431  -7.897 -20.720  0.00  0.00    +0.030 C 
ENDBRANCH  23  25
ENDBRANCH  21  23
ENDBRANCH  20  21
ENDBRANCH  18  20
ENDBRANCH  17  18
ENDBRANCH  15  17
ENDBRANCH   1  15
BRANCH   6  26
ATOM     26  O   LIG    1        6.800  -5.062 -14.746  0.00  0.00    -0.478 OA
ATOM     27  H   LIG    1        7.630  -5.264 -14.293  0.00  0.00    +0.378 HD
ENDBRANCH   6  26
TORSDOF 9
ENDMDL
MODEL 3
REMARK VINA RESULT:      -5.8     10.754     13.244
REMARK  Name = CHEMBL1091981
REMARK                            x       y       z     vdW  Elec       q    Type
REMARK                         _______ _______ _______ _____ _____    ______ ____
ROOT
ATOM      1  C   LIG    1       -2.509 -14.953 -21.081  0.00  0.00    -0.267 A 
ATOM      2  C   LIG    1       -2.979 -15.052 -19.806  0.00  0.00    +0.099 A 
ATOM      3 CL   LIG    1       -3.100 -16.606 -19.043  0.00  0.00    -0.034 Cl
ATOM      4  C   LIG    1       -3.364 -13.892 -19.110  0.00  0.00    -0.216 A 
ATOM      5  C   LIG    1       -3.873 -13.793 -17.788  0.00  0.00    +0.109 A 
ATOM      6  C   LIG    1       -4.202 -12.584 -17.256  0.00  0.00    +0.018 A 
ATOM      7  C   LIG    1       -4.053 -11.401 -17.988  0.00  0.00    +0.331 A 
ATOM      8  O   LIG    1       -4.390 -10.207 -17.434  0.00  0.00    -0.621 OA
ATOM      9  C   LIG    1       -3.560 -11.459 -19.279  0.00  0.00    -0.165 A 
ATOM     10  C   LIG    1       -3.225 -12.679 -19.825  0.00  0.00    +0.011 A 
ATOM     11  S   LIG    1       -2.571 -13.196 -21.393  0.00  0.00    +0.119 S 
ENDROOT
BRANCH   9  12
ATOM     12  N   LIG    1       -3.396 -10.219 -20.070  0.00  0.00    +0.062 N 
ATOM     13  O   LIG    1       -2.531  -9.426 -19.778  0.00  0.00    -0.160 OA
ATOM     14  O   LIG    1       -4.126  -9.999 -21.009  0.00  0.00    -0.161 OA
ENDBRANCH   9  12
BRANCH   1  15
ATOM     15  C   LIG    1       -2.060 -16.023 -21.975  0.00  0.00    +0.559 C 
ATOM     16  O   LIG    1       -1.026 -16.617 -21.739  0.00  0.00    -0.479 OA
BRANCH  15  17
ATOM     17  O   LIG    1       -2.792 -16.348 -23.060  0.00  0.00    -0.344 OA
BRANCH  17  18
ATOM     18  C   LIG    1       -3.402 -17.640 -23.068  0.00  0.00    +0.392 C 
ATOM     19  C   LIG    1       -3.017 -18.379 -24.351  0.00  0.00    +0.082 C 
BRANCH  18  20
ATOM     20  O   LIG    1       -4.823 -17.496 -23.009  0.00  0.00    -0.355 OA
BRANCH  20  21
ATOM     21  C   LIG    1       -5.498 -18.402 -22.285  0.00  0.00    +0.456 C 
ATOM     22  O   LIG    1       -6.472 -18.944 -22.751  0.00  0.00    -0.483 OA
BRANCH  21  23
ATOM     23  C   LIG    1       -5.041 -18.743 -20.890  0.00  0.00    +0.095 C 
BRANCH  23  25
ATOM     24  C   LIG    1       -4.325 -21.055 -20.266  0.00  0.00    +0.021 C 
ATOM     25  C   LIG    1       -5.529 -20.146 -20.522  0.00  0.00    +0.030 C 
ENDBRANCH  23  25
ENDBRANCH  21  23
ENDBRANCH  20  21
ENDBRANCH  18  20
ENDBRANCH  17  18
ENDBRANCH  15  17
ENDBRANCH   1  15
BRANCH   6  26
ATOM     26  O   LIG    1       -4.687 -12.527 -15.986  0.00  0.00    -0.478 OA
ATOM     27  H   LIG    1       -4.154 -11.987 -15.387  0.00  0.00    +0.378 HD
ENDBRANCH   6  26
TORSDOF 9
ENDMDL
MODEL 4
REMARK VINA RESULT:      -5.8      1.407      2.269
REMARK  Name = CHEMBL1091981
REMARK                            x       y       z     vdW  Elec       q    Type
REMARK                         _______ _______ _______ _____ _____    ______ ____
ROOT
ATOM      1  C   LIG    1        6.127  -7.432 -19.186  0.00  0.00    -0.267 A 
ATOM      2  C   LIG    1        6.741  -6.369 -19.778  0.00  0.00    +0.099 A 
ATOM      3 CL   LIG    1        7.119  -6.416 -21.471  0.00  0.00    -0.034 Cl
ATOM      4  C   LIG    1        7.068  -5.235 -19.014  0.00  0.00    -0.216 A 
ATOM      5  C   LIG    1        7.704  -4.040 -19.446  0.00  0.00    +0.109 A 
ATOM      6  C   LIG    1        7.951  -3.027 -18.573  0.00  0.00    +0.018 A 
ATOM      7  C   LIG    1        7.592  -3.122 -17.225  0.00  0.00    +0.331 A 
ATOM      8  O   LIG    1        7.851  -2.095 -16.373  0.00  0.00    -0.621 OA
ATOM      9  C   LIG    1        6.970  -4.269 -16.767  0.00  0.00    -0.165 A 
ATOM     10  C   LIG    1        6.716  -5.301 -17.645  0.00  0.00    +0.011 A 
ATOM     11  S   LIG    1        5.958  -6.900 -17.491  0.00  0.00    +0.119 S 
ENDROOT
BRANCH   9  12
ATOM     12  N   LIG    1        6.582  -4.390 -15.344  0.00  0.00    +0.062 N 
ATOM     13  O   LIG    1        5.811  -3.596 -14.858  0.00  0.00    -0.160 OA
ATOM     14  O   LIG    1        7.036  -5.283 -14.667  0.00  0.00    -0.161 OA
ENDBRANCH   9  12
BRANCH   1  15
ATOM     15  C   LIG    1        5.706  -8.697 -19.792  0.00  0.00    +0.559 C 
ATOM     16  O   LIG    1        6.440  -9.271 -20.572  0.00  0.00    -0.479 OA
BRANCH  15  17
ATOM     17  O   LIG    1        4.502  -9.223 -19.485  0.00  0.00    -0.344 OA
BRANCH  17  18
ATOM     18  C   LIG    1        3.350  -8.558 -20.008  0.00  0.00    +0.392 C 
ATOM     19  C   LIG    1        2.310  -9.596 -20.432  0.00  0.00    +0.082 C 
BRANCH  18  20
ATOM     20  O   LIG    1        3.727  -7.771 -21.140  0.00  0.00    -0.355 OA
BRANCH  20  21
ATOM     21  C   LIG    1        2.928  -6.740 -21.458  0.00  0.00    +0.456 C 
ATOM     22  O   LIG    1        2.283  -6.189 -20.597  0.00  0.00    -0.483 OA
BRANCH  21  23
ATOM     23  C   LIG    1        2.835  -6.271 -22.886  0.00  0.00    +0.095 C 
BRANCH  23  25
ATOM     24  C   LIG    1        4.783  -5.064 -23.885  0.00  0.00    +0.021 C 
ATOM     25  C   LIG    1        4.194  -6.441 -23.569  0.00  0.00    +0.030 C 
ENDBRANCH  23  25
ENDBRANCH  21  23
ENDBRANCH  20  21
ENDBRANCH  18  20
ENDBRANCH  17  18
ENDBRANCH  15  17
ENDBRANCH   1  15
BRANCH   6  26
ATOM     26  O   LIG    1        8.562  -1.897 -19.023  0.00  0.00    -0.478 OA
ATOM     27  H   LIG    1        7.957  -1.251 -19.412  0.00  0.00    +0.378 HD
ENDBRANCH   6  26
TORSDOF 9
ENDMDL
MODEL 5
REMARK VINA RESULT:      -5.7     10.788     12.860
REMARK  Name = CHEMBL1091981
REMARK                            x       y       z     vdW  Elec       q    Type
REMARK                         _______ _______ _______ _____ _____    ______ ____
ROOT
ATOM      1  C   LIG    1       -2.570 -15.086 -21.149  0.00  0.00    -0.267 A 
ATOM      2  C   LIG    1       -3.022 -15.186 -19.867  0.00  0.00    +0.099 A 
ATOM      3 CL   LIG    1       -3.162 -16.743 -19.114  0.00  0.00    -0.034 Cl
ATOM      4  C   LIG    1       -3.374 -14.025 -19.157  0.00  0.00    -0.216 A 
ATOM      5  C   LIG    1       -3.861 -13.926 -17.826  0.00  0.00    +0.109 A 
ATOM      6  C   LIG    1       -4.158 -12.716 -17.281  0.00  0.00    +0.018 A 
ATOM      7  C   LIG    1       -3.998 -11.530 -18.005  0.00  0.00    +0.331 A 
ATOM      8  O   LIG    1       -4.303 -10.333 -17.438  0.00  0.00    -0.621 OA
ATOM      9  C   LIG    1       -3.526 -11.587 -19.304  0.00  0.00    -0.165 A 
ATOM     10  C   LIG    1       -3.222 -12.809 -19.864  0.00  0.00    +0.011 A 
ATOM     11  S   LIG    1       -2.603 -13.327 -21.446  0.00  0.00    +0.119 S 
ENDROOT
BRANCH   9  12
ATOM     12  N   LIG    1       -3.349 -10.344 -20.088  0.00  0.00    +0.062 N 
ATOM     13  O   LIG    1       -2.467  -9.569 -19.802  0.00  0.00    -0.160 OA
ATOM     14  O   LIG    1       -4.087 -10.104 -21.015  0.00  0.00    -0.161 OA
ENDBRANCH   9  12
BRANCH   1  15
ATOM     15  C   LIG    1       -2.155 -16.158 -22.057  0.00  0.00    +0.559 C 
ATOM     16  O   LIG    1       -1.057 -16.664 -21.937  0.00  0.00    -0.479 OA
BRANCH  15  17
ATOM     17  O   LIG    1       -2.991 -16.581 -23.027  0.00  0.00    -0.344 OA
BRANCH  17  18
ATOM     18  C   LIG    1       -4.392 -16.431 -22.789  0.00  0.00    +0.392 C 
ATOM     19  C   LIG    1       -4.936 -17.698 -22.127  0.00  0.00    +0.082 C 
BRANCH  18  20
ATOM     20  O   LIG    1       -5.066 -16.216 -24.031  0.00  0.00    -0.355 OA
BRANCH  20  21
ATOM     21  C   LIG    1       -6.281 -15.649 -23.975  0.00  0.00    +0.456 C 
ATOM     22  O   LIG    1       -7.256 -16.275 -24.319  0.00  0.00    -0.483 OA
BRANCH  21  23
ATOM     23  C   LIG    1       -6.431 -14.234 -23.481  0.00  0.00    +0.095 C 
BRANCH  23  25
ATOM     24  C   LIG    1       -8.273 -12.777 -22.625  0.00  0.00    +0.021 C 
ATOM     25  C   LIG    1       -7.864 -13.755 -23.729  0.00  0.00    +0.030 C 
ENDBRANCH  23  25
ENDBRANCH  21  23
ENDBRANCH  20  21
ENDBRANCH  18  20
ENDBRANCH  17  18
ENDBRANCH  15  17
ENDBRANCH   1  15
BRANCH   6  26
ATOM     26  O   LIG    1       -4.623 -12.659 -16.003  0.00  0.00    -0.478 OA
ATOM     27  H   LIG    1       -3.938 -12.483 -15.343  0.00  0.00    +0.378 HD
ENDBRANCH   6  26
TORSDOF 9
ENDMDL
MODEL 6
REMARK VINA RESULT:      -5.5     10.139     14.029
REMARK  Name = CHEMBL1091981
REMARK                            x       y       z     vdW  Elec       q    Type
REMARK                         _______ _______ _______ _____ _____    ______ ____
ROOT
ATOM      1  C   LIG    1       -4.187 -11.552 -22.766  0.00  0.00    -0.267 A 
ATOM      2  C   LIG    1       -4.817 -10.504 -23.367  0.00  0.00    +0.099 A 
ATOM      3 CL   LIG    1       -3.906  -9.117 -23.875  0.00  0.00    -0.034 Cl
ATOM      4  C   LIG    1       -6.207 -10.548 -23.574  0.00  0.00    -0.216 A 
ATOM      5  C   LIG    1       -7.035  -9.564 -24.177  0.00  0.00    +0.109 A 
ATOM      6  C   LIG    1       -8.375  -9.762 -24.303  0.00  0.00    +0.018 A 
ATOM      7  C   LIG    1       -8.985 -10.935 -23.846  0.00  0.00    +0.331 A 
ATOM      8  O   LIG    1      -10.326 -11.108 -23.983  0.00  0.00    -0.621 OA
ATOM      9  C   LIG    1       -8.211 -11.917 -23.255  0.00  0.00    -0.165 A 
ATOM     10  C   LIG    1       -6.852 -11.724 -23.123  0.00  0.00    +0.011 A 
ATOM     11  S   LIG    1       -5.523 -12.693 -22.453  0.00  0.00    +0.119 S 
ENDROOT
BRANCH   9  12
ATOM     12  N   LIG    1       -8.836 -13.166 -22.765  0.00  0.00    +0.062 N 
ATOM     13  O   LIG    1       -8.730 -14.186 -23.404  0.00  0.00    -0.160 OA
ATOM     14  O   LIG    1       -9.453 -13.165 -21.725  0.00  0.00    -0.161 OA
ENDBRANCH   9  12
BRANCH   1  15
ATOM     15  C   LIG    1       -2.764 -11.707 -22.459  0.00  0.00    +0.559 C 
ATOM     16  O   LIG    1       -1.968 -11.920 -23.352  0.00  0.00    -0.479 OA
BRANCH  15  17
ATOM     17  O   LIG    1       -2.336 -11.615 -21.183  0.00  0.00    -0.344 OA
BRANCH  17  18
ATOM     18  C   LIG    1       -2.734 -10.458 -20.446  0.00  0.00    +0.392 C 
ATOM     19  C   LIG    1       -1.806  -9.290 -20.787  0.00  0.00    +0.082 C 
BRANCH  18  20
ATOM     20  O   LIG    1       -2.656 -10.734 -19.045  0.00  0.00    -0.355 OA
BRANCH  20  21
ATOM     21  C   LIG    1       -3.795 -11.088 -18.430  0.00  0.00    +0.456 C 
ATOM     22  O   LIG    1       -4.233 -10.407 -17.533  0.00  0.00    -0.483 OA
BRANCH  21  23
ATOM     23  C   LIG    1       -4.528 -12.332 -18.858  0.00  0.00    +0.095 C 
BRANCH  23  25
ATOM     24  C   LIG    1       -3.880 -14.012 -17.124  0.00  0.00    +0.021 C 
ATOM     25  C   LIG    1       -3.661 -13.560 -18.570  0.00  0.00    +0.030 C 
ENDBRANCH  23  25
ENDBRANCH  21  23
ENDBRANCH  20  21
ENDBRANCH  18  20
ENDBRANCH  17  18
ENDBRANCH  15  17
ENDBRANCH   1  15
BRANCH   6  26
ATOM     26  O   LIG    1       -9.138  -8.797 -24.885  0.00  0.00    -0.478 OA
ATOM     27  H   LIG    1       -8.721  -8.373 -25.647  0.00  0.00    +0.378 HD
ENDBRANCH   6  26
TORSDOF 9
ENDMDL
MODEL 7
REMARK VINA RESULT:      -5.4      5.720     10.570
REMARK  Name = CHEMBL1091981
REMARK                            x       y       z     vdW  Elec       q    Type
REMARK                         _______ _______ _______ _____ _____    ______ ____
ROOT
ATOM      1  C   LIG    1       -1.007 -10.014 -22.291  0.00  0.00    -0.267 A 
ATOM      2  C   LIG    1       -1.417  -9.613 -21.055  0.00  0.00    +0.099 A 
ATOM      3 CL   LIG    1       -0.950  -8.057 -20.445  0.00  0.00    -0.034 Cl
ATOM      4  C   LIG    1       -2.219 -10.465 -20.274  0.00  0.00    -0.216 A 
ATOM      5  C   LIG    1       -2.740 -10.229 -18.974  0.00  0.00    +0.109 A 
ATOM      6  C   LIG    1       -3.506 -11.164 -18.350  0.00  0.00    +0.018 A 
ATOM      7  C   LIG    1       -3.808 -12.385 -18.960  0.00  0.00    +0.331 A 
ATOM      8  O   LIG    1       -4.575 -13.303 -18.314  0.00  0.00    -0.621 OA
ATOM      9  C   LIG    1       -3.318 -12.651 -20.226  0.00  0.00    -0.165 A 
ATOM     10  C   LIG    1       -2.541 -11.709 -20.866  0.00  0.00    +0.011 A 
ATOM     11  S   LIG    1       -1.737 -11.635 -22.448  0.00  0.00    +0.119 S 
ENDROOT
BRANCH   9  12
ATOM     12  N   LIG    1       -3.625 -13.938 -20.890  0.00  0.00    +0.062 N 
ATOM     13  O   LIG    1       -2.924 -14.902 -20.692  0.00  0.00    -0.160 OA
ATOM     14  O   LIG    1       -4.578 -14.024 -21.629  0.00  0.00    -0.161 OA
ENDBRANCH   9  12
BRANCH   1  15
ATOM     15  C   LIG    1       -0.177  -9.290 -23.256  0.00  0.00    +0.559 C 
ATOM     16  O   LIG    1       -0.693  -8.534 -24.056  0.00  0.00    -0.479 OA
BRANCH  15  17
ATOM     17  O   LIG    1        1.161  -9.463 -23.260  0.00  0.00    -0.344 OA
BRANCH  17  18
ATOM     18  C   LIG    1        1.954  -8.407 -22.715  0.00  0.00    +0.392 C 
ATOM     19  C   LIG    1        3.259  -8.290 -23.503  0.00  0.00    +0.082 C 
BRANCH  18  20
ATOM     20  O   LIG    1        2.249  -8.690 -21.345  0.00  0.00    -0.355 OA
BRANCH  20  21
ATOM     21  C   LIG    1        2.828  -7.712 -20.631  0.00  0.00    +0.456 C 
ATOM     22  O   LIG    1        2.302  -6.626 -20.558  0.00  0.00    -0.483 OA
BRANCH  21  23
ATOM     23  C   LIG    1        4.132  -7.967 -19.922  0.00  0.00    +0.095 C 
BRANCH  23  25
ATOM     24  C   LIG    1        5.820  -6.458 -18.864  0.00  0.00    +0.021 C 
ATOM     25  C   LIG    1        5.083  -6.792 -20.163  0.00  0.00    +0.030 C 
ENDBRANCH  23  25
ENDBRANCH  21  23
ENDBRANCH  20  21
ENDBRANCH  18  20
ENDBRANCH  17  18
ENDBRANCH  15  17
ENDBRANCH   1  15
BRANCH   6  26
ATOM     26  O   LIG    1       -3.988 -10.904 -17.104  0.00  0.00    -0.478 OA
ATOM     27  H   LIG    1       -4.899 -11.197 -16.966  0.00  0.00    +0.378 HD
ENDBRANCH   6  26
TORSDOF 9
ENDMDL
MODEL 8
REMARK VINA RESULT:      -5.3     10.650     12.758
REMARK  Name = CHEMBL1091981
REMARK                            x       y       z     vdW  Elec       q    Type
REMARK                         _______ _______ _______ _____ _____    ______ ____
ROOT
ATOM      1  C   LIG    1       -2.484 -14.966 -21.000  0.00  0.00    -0.267 A 
ATOM      2  C   LIG    1       -2.996 -15.065 -19.741  0.00  0.00    +0.099 A 
ATOM      3 CL   LIG    1       -3.169 -16.621 -18.993  0.00  0.00    -0.034 Cl
ATOM      4  C   LIG    1       -3.384 -13.903 -19.050  0.00  0.00    -0.216 A 
ATOM      5  C   LIG    1       -3.934 -13.803 -17.745  0.00  0.00    +0.109 A 
ATOM      6  C   LIG    1       -4.260 -12.593 -17.216  0.00  0.00    +0.018 A 
ATOM      7  C   LIG    1       -4.068 -11.408 -17.934  0.00  0.00    +0.331 A 
ATOM      8  O   LIG    1       -4.402 -10.211 -17.384  0.00  0.00    -0.621 OA
ATOM      9  C   LIG    1       -3.534 -11.466 -19.209  0.00  0.00    -0.165 A 
ATOM     10  C   LIG    1       -3.201 -12.688 -19.752  0.00  0.00    +0.011 A 
ATOM     11  S   LIG    1       -2.506 -13.207 -21.302  0.00  0.00    +0.119 S 
ENDROOT
BRANCH   9  12
ATOM     12  N   LIG    1       -3.323 -10.224 -19.986  0.00  0.00    +0.062 N 
ATOM     13  O   LIG    1       -2.457  -9.447 -19.660  0.00  0.00    -0.160 OA
ATOM     14  O   LIG    1       -4.016  -9.987 -20.948  0.00  0.00    -0.161 OA
ENDBRANCH   9  12
BRANCH   1  15
ATOM     15  C   LIG    1       -2.023 -16.038 -21.885  0.00  0.00    +0.559 C 
ATOM     16  O   LIG    1       -2.827 -16.672 -22.541  0.00  0.00    -0.479 OA
BRANCH  15  17
ATOM     17  O   LIG    1       -0.708 -16.323 -21.973  0.00  0.00    -0.344 OA
BRANCH  17  18
ATOM     18  C   LIG    1       -0.086 -16.883 -20.814  0.00  0.00    +0.392 C 
ATOM     19  C   LIG    1        1.144 -16.053 -20.443  0.00  0.00    +0.082 C 
BRANCH  18  20
ATOM     20  O   LIG    1        0.312 -18.228 -21.090  0.00  0.00    -0.355 OA
BRANCH  20  21
ATOM     21  C   LIG    1        0.056 -19.145 -20.145  0.00  0.00    +0.456 C 
ATOM     22  O   LIG    1       -1.050 -19.224 -19.665  0.00  0.00    -0.483 OA
BRANCH  21  23
ATOM     23  C   LIG    1        1.146 -20.077 -19.683  0.00  0.00    +0.095 C 
BRANCH  23  25
ATOM     24  C   LIG    1        3.472 -19.292 -19.218  0.00  0.00    +0.021 C 
ATOM     25  C   LIG    1        2.475 -19.662 -20.318  0.00  0.00    +0.030 C 
ENDBRANCH  23  25
ENDBRANCH  21  23
ENDBRANCH  20  21
ENDBRANCH  18  20
ENDBRANCH  17  18
ENDBRANCH  15  17
ENDBRANCH   1  15
BRANCH   6  26
ATOM     26  O   LIG    1       -4.785 -12.534 -15.962  0.00  0.00    -0.478 OA
ATOM     27  H   LIG    1       -5.585 -11.995 -15.896  0.00  0.00    +0.378 HD
ENDBRANCH   6  26
TORSDOF 9
ENDMDL
MODEL 9
REMARK VINA RESULT:      -5.3     18.946     22.056
REMARK  Name = CHEMBL1091981
REMARK                            x       y       z     vdW  Elec       q    Type
REMARK                         _______ _______ _______ _____ _____    ______ ____
ROOT
ATOM      1  C   LIG    1      -12.691  -9.971 -27.438  0.00  0.00    -0.267 A 
ATOM      2  C   LIG    1      -12.075 -11.054 -26.888  0.00  0.00    +0.099 A 
ATOM      3 CL   LIG    1      -10.778 -10.835 -25.756  0.00  0.00    -0.034 Cl
ATOM      4  C   LIG    1      -12.492 -12.350 -27.240  0.00  0.00    -0.216 A 
ATOM      5  C   LIG    1      -11.978 -13.591 -26.778  0.00  0.00    +0.109 A 
ATOM      6  C   LIG    1      -12.497 -14.768 -27.221  0.00  0.00    +0.018 A 
ATOM      7  C   LIG    1      -13.549 -14.801 -28.141  0.00  0.00    +0.331 A 
ATOM      8  O   LIG    1      -14.049 -15.991 -28.568  0.00  0.00    -0.621 OA
ATOM      9  C   LIG    1      -14.076 -13.612 -28.613  0.00  0.00    -0.165 A 
ATOM     10  C   LIG    1      -13.556 -12.415 -28.170  0.00  0.00    +0.011 A 
ATOM     11  S   LIG    1      -13.923 -10.709 -28.498  0.00  0.00    +0.119 S 
ENDROOT
BRANCH   9  12
ATOM     12  N   LIG    1      -15.190 -13.625 -29.588  0.00  0.00    +0.062 N 
ATOM     13  O   LIG    1      -16.333 -13.559 -29.201  0.00  0.00    -0.160 OA
ATOM     14  O   LIG    1      -14.956 -13.701 -30.772  0.00  0.00    -0.161 OA
ENDBRANCH   9  12
BRANCH   1  15
ATOM     15  C   LIG    1      -12.415  -8.550 -27.212  0.00  0.00    +0.559 C 
ATOM     16  O   LIG    1      -12.081  -7.841 -28.140  0.00  0.00    -0.479 OA
BRANCH  15  17
ATOM     17  O   LIG    1      -12.531  -8.030 -25.973  0.00  0.00    -0.344 OA
BRANCH  17  18
ATOM     18  C   LIG    1      -12.015  -6.712 -25.771  0.00  0.00    +0.392 C 
ATOM     19  C   LIG    1      -10.955  -6.742 -24.668  0.00  0.00    +0.082 C 
BRANCH  18  20
ATOM     20  O   LIG    1      -13.078  -5.838 -25.386  0.00  0.00    -0.355 OA
BRANCH  20  21
ATOM     21  C   LIG    1      -13.827  -5.319 -26.372  0.00  0.00    +0.456 C 
ATOM     22  O   LIG    1      -13.323  -4.593 -27.195  0.00  0.00    -0.483 OA
BRANCH  21  23
ATOM     23  C   LIG    1      -15.297  -5.641 -26.452  0.00  0.00    +0.095 C 
BRANCH  23  25
ATOM     24  C   LIG    1      -17.302  -6.359 -25.144  0.00  0.00    +0.021 C 
ATOM     25  C   LIG    1      -15.799  -6.080 -25.074  0.00  0.00    +0.030 C 
ENDBRANCH  23  25
ENDBRANCH  21  23
ENDBRANCH  20  21
ENDBRANCH  18  20
ENDBRANCH  17  18
ENDBRANCH  15  17
ENDBRANCH   1  15
BRANCH   6  26
ATOM     26  O   LIG    1      -11.979 -15.939 -26.757  0.00  0.00    -0.478 OA
ATOM     27  H   LIG    1      -11.263 -16.294 -27.301  0.00  0.00    +0.378 HD
ENDBRANCH   6  26
TORSDOF 9
ENDMDL
