MODEL 1
REMARK VINA RESULT:      -6.7      0.000      0.000
REMARK  Name = CHEMBL169891
REMARK                            x       y       z     vdW  Elec       q    Type
REMARK                         _______ _______ _______ _____ _____    ______ ____
ROOT
ATOM      1  C   LIG    1       -5.675  -2.252 -19.804  0.00  0.00    +0.183 A 
ATOM      2  C   LIG    1       -6.983  -2.496 -19.377  0.00  0.00    -0.160 A 
ATOM      3  C   LIG    1       -7.637  -1.563 -18.568  0.00  0.00    +0.098 A 
ATOM      4  C   LIG    1       -6.987  -0.402 -18.195  0.00  0.00    -0.013 A 
ATOM      5  C   LIG    1       -5.683  -0.164 -18.624  0.00  0.00    +0.306 A 
ATOM      6  O   LIG    1       -5.046   0.977 -18.257  0.00  0.00    -0.605 OA
ATOM      7  C   LIG    1       -5.033  -1.091 -19.428  0.00  0.00    -0.195 A 
ENDROOT
BRANCH   7   8
ATOM      8  N   LIG    1       -3.648  -0.833 -19.881  0.00  0.00    +0.070 N 
ATOM      9  O   LIG    1       -3.447  -0.121 -20.838  0.00  0.00    -0.152 OA
ATOM     10  O   LIG    1       -2.717  -1.334 -19.295  0.00  0.00    -0.248 OA
ENDBRANCH   7   8
BRANCH   2  11
ATOM     11  C   LIG    1       -7.652  -3.701 -19.768  0.00  0.00    +0.286 C 
ATOM     12  N   LIG    1       -8.183  -4.656 -20.077  0.00  0.00    -0.466 NA
ENDBRANCH   2  11
BRANCH   4  13
ATOM     13  O   LIG    1       -7.621   0.508 -17.408  0.00  0.00    -0.478 OA
ATOM     14  H   LIG    1       -8.181   1.128 -17.896  0.00  0.00    +0.372 HD
ENDBRANCH   4  13
TORSDOF 3
ENDMDL
MODEL 2
REMARK VINA RESULT:      -6.5      2.775      4.711
REMARK  Name = CHEMBL169891
REMARK                            x       y       z     vdW  Elec       q    Type
REMARK                         _______ _______ _______ _____ _____    ______ ____
ROOT
ATOM      1  C   LIG    1       -4.924   0.784 -18.946  0.00  0.00    +0.183 A 
ATOM      2  C   LIG    1       -4.225   0.211 -20.012  0.00  0.00    -0.160 A 
ATOM      3  C   LIG    1       -4.587  -1.055 -20.481  0.00  0.00    +0.098 A 
ATOM      4  C   LIG    1       -5.634  -1.734 -19.888  0.00  0.00    -0.013 A 
ATOM      5  C   LIG    1       -6.327  -1.156 -18.826  0.00  0.00    +0.306 A 
ATOM      6  O   LIG    1       -7.357  -1.824 -18.244  0.00  0.00    -0.605 OA
ATOM      7  C   LIG    1       -5.967   0.102 -18.360  0.00  0.00    -0.195 A 
ENDROOT
BRANCH   7   8
ATOM      8  N   LIG    1       -6.707   0.710 -17.231  0.00  0.00    +0.070 N 
ATOM      9  O   LIG    1       -6.406   0.434 -16.093  0.00  0.00    -0.152 OA
ATOM     10  O   LIG    1       -7.610   1.484 -17.448  0.00  0.00    -0.248 OA
ENDBRANCH   7   8
BRANCH   2  11
ATOM     11  C   LIG    1       -3.141   0.919 -20.624  0.00  0.00    +0.286 C 
ATOM     12  N   LIG    1       -2.281   1.481 -21.109  0.00  0.00    -0.466 NA
ENDBRANCH   2  11
BRANCH   4  13
ATOM     13  O   LIG    1       -5.989  -2.965 -20.342  0.00  0.00    -0.478 OA
ATOM     14  H   LIG    1       -5.277  -3.439 -20.793  0.00  0.00    +0.372 HD
ENDBRANCH   4  13
TORSDOF 3
ENDMDL
MODEL 3
REMARK VINA RESULT:      -6.4      2.388      4.043
REMARK  Name = CHEMBL169891
REMARK                            x       y       z     vdW  Elec       q    Type
REMARK                         _______ _______ _______ _____ _____    ______ ____
ROOT
ATOM      1  C   LIG    1       -4.775  -0.880 -20.130  0.00  0.00    +0.183 A 
ATOM      2  C   LIG    1       -4.413   0.453 -19.911  0.00  0.00    -0.160 A 
ATOM      3  C   LIG    1       -5.207   1.265 -19.096  0.00  0.00    +0.098 A 
ATOM      4  C   LIG    1       -6.346   0.747 -18.511  0.00  0.00    -0.013 A 
ATOM      5  C   LIG    1       -6.701  -0.582 -18.732  0.00  0.00    +0.306 A 
ATOM      6  O   LIG    1       -7.821  -1.091 -18.156  0.00  0.00    -0.605 OA
ATOM      7  C   LIG    1       -5.912  -1.389 -19.541  0.00  0.00    -0.195 A 
ENDROOT
BRANCH   7   8
ATOM      8  N   LIG    1       -6.294  -2.801 -19.774  0.00  0.00    +0.070 N 
ATOM      9  O   LIG    1       -7.211  -3.065 -20.516  0.00  0.00    -0.152 OA
ATOM     10  O   LIG    1       -5.688  -3.689 -19.221  0.00  0.00    -0.248 OA
ENDBRANCH   7   8
BRANCH   2  11
ATOM     11  C   LIG    1       -3.231   0.984 -20.520  0.00  0.00    +0.286 C 
ATOM     12  N   LIG    1       -2.293   1.406 -21.004  0.00  0.00    -0.466 NA
ENDBRANCH   2  11
BRANCH   4  13
ATOM     13  O   LIG    1       -7.120   1.534 -17.718  0.00  0.00    -0.478 OA
ATOM     14  H   LIG    1       -7.882   1.078 -17.334  0.00  0.00    +0.372 HD
ENDBRANCH   4  13
TORSDOF 3
ENDMDL
MODEL 4
REMARK VINA RESULT:      -5.3     10.250     11.512
REMARK  Name = CHEMBL169891
REMARK                            x       y       z     vdW  Elec       q    Type
REMARK                         _______ _______ _______ _____ _____    ______ ____
ROOT
ATOM      1  C   LIG    1       -3.258 -12.952 -19.400  0.00  0.00    +0.183 A 
ATOM      2  C   LIG    1       -3.488 -14.019 -18.526  0.00  0.00    -0.160 A 
ATOM      3  C   LIG    1       -4.068 -13.782 -17.277  0.00  0.00    +0.098 A 
ATOM      4  C   LIG    1       -4.413 -12.495 -16.911  0.00  0.00    -0.013 A 
ATOM      5  C   LIG    1       -4.181 -11.436 -17.787  0.00  0.00    +0.306 A 
ATOM      6  O   LIG    1       -4.520 -10.171 -17.427  0.00  0.00    -0.605 OA
ATOM      7  C   LIG    1       -3.604 -11.671 -19.028  0.00  0.00    -0.195 A 
ENDROOT
BRANCH   7   8
ATOM      8  N   LIG    1       -3.360 -10.542 -19.955  0.00  0.00    +0.070 N 
ATOM      9  O   LIG    1       -4.073 -10.387 -20.919  0.00  0.00    -0.152 OA
ATOM     10  O   LIG    1       -2.449  -9.775 -19.746  0.00  0.00    -0.248 OA
ENDBRANCH   7   8
BRANCH   2  11
ATOM     11  C   LIG    1       -3.130 -15.351 -18.910  0.00  0.00    +0.286 C 
ATOM     12  N   LIG    1       -2.845 -16.408 -19.215  0.00  0.00    -0.466 NA
ENDBRANCH   2  11
BRANCH   4  13
ATOM     13  O   LIG    1       -4.978 -12.262 -15.697  0.00  0.00    -0.478 OA
ATOM     14  H   LIG    1       -4.454 -11.686 -15.123  0.00  0.00    +0.372 HD
ENDBRANCH   4  13
TORSDOF 3
ENDMDL
MODEL 5
REMARK VINA RESULT:      -5.2      4.267      5.601
REMARK  Name = CHEMBL169891
REMARK                            x       y       z     vdW  Elec       q    Type
REMARK                         _______ _______ _______ _____ _____    ______ ____
ROOT
ATOM      1  C   LIG    1       -7.331  -3.535 -21.178  0.00  0.00    +0.183 A 
ATOM      2  C   LIG    1       -6.784  -3.323 -19.910  0.00  0.00    -0.160 A 
ATOM      3  C   LIG    1       -7.408  -3.867 -18.783  0.00  0.00    +0.098 A 
ATOM      4  C   LIG    1       -8.561  -4.613 -18.929  0.00  0.00    -0.013 A 
ATOM      5  C   LIG    1       -9.102  -4.820 -20.197  0.00  0.00    +0.306 A 
ATOM      6  O   LIG    1      -10.236  -5.553 -20.339  0.00  0.00    -0.605 OA
ATOM      7  C   LIG    1       -8.482  -4.280 -21.316  0.00  0.00    -0.195 A 
ENDROOT
BRANCH   7   8
ATOM      8  N   LIG    1       -9.061  -4.503 -22.660  0.00  0.00    +0.070 N 
ATOM      9  O   LIG    1       -9.392  -3.560 -23.340  0.00  0.00    -0.152 OA
ATOM     10  O   LIG    1       -9.200  -5.629 -23.078  0.00  0.00    -0.248 OA
ENDBRANCH   7   8
BRANCH   2  11
ATOM     11  C   LIG    1       -5.587  -2.551 -19.764  0.00  0.00    +0.286 C 
ATOM     12  N   LIG    1       -4.637  -1.937 -19.649  0.00  0.00    -0.466 NA
ENDBRANCH   2  11
BRANCH   4  13
ATOM     13  O   LIG    1       -9.170  -5.144 -17.835  0.00  0.00    -0.478 OA
ATOM     14  H   LIG    1      -10.108  -5.340 -17.964  0.00  0.00    +0.372 HD
ENDBRANCH   4  13
TORSDOF 3
ENDMDL
MODEL 6
REMARK VINA RESULT:      -5.2      3.381      4.408
REMARK  Name = CHEMBL169891
REMARK                            x       y       z     vdW  Elec       q    Type
REMARK                         _______ _______ _______ _____ _____    ______ ____
ROOT
ATOM      1  C   LIG    1       -7.668  -3.357 -21.358  0.00  0.00    +0.183 A 
ATOM      2  C   LIG    1       -8.636  -4.258 -21.813  0.00  0.00    -0.160 A 
ATOM      3  C   LIG    1       -9.179  -5.198 -20.932  0.00  0.00    +0.098 A 
ATOM      4  C   LIG    1       -8.759  -5.232 -19.617  0.00  0.00    -0.013 A 
ATOM      5  C   LIG    1       -7.794  -4.331 -19.170  0.00  0.00    +0.306 A 
ATOM      6  O   LIG    1       -7.381  -4.365 -17.877  0.00  0.00    -0.605 OA
ATOM      7  C   LIG    1       -7.253  -3.397 -20.045  0.00  0.00    -0.195 A 
ENDROOT
BRANCH   7   8
ATOM      8  N   LIG    1       -6.229  -2.442 -19.565  0.00  0.00    +0.070 N 
ATOM      9  O   LIG    1       -5.055  -2.696 -19.702  0.00  0.00    -0.152 OA
ATOM     10  O   LIG    1       -6.567  -1.409 -19.035  0.00  0.00    -0.248 OA
ENDBRANCH   7   8
BRANCH   2  11
ATOM     11  C   LIG    1       -9.069  -4.218 -23.177  0.00  0.00    +0.286 C 
ATOM     12  N   LIG    1       -9.414  -4.187 -24.259  0.00  0.00    -0.466 NA
ENDBRANCH   2  11
BRANCH   4  13
ATOM     13  O   LIG    1       -9.286  -6.144 -18.758  0.00  0.00    -0.478 OA
ATOM     14  H   LIG    1       -9.994  -5.796 -18.199  0.00  0.00    +0.372 HD
ENDBRANCH   4  13
TORSDOF 3
ENDMDL
MODEL 7
REMARK VINA RESULT:      -5.2      9.318     10.757
REMARK  Name = CHEMBL169891
REMARK                            x       y       z     vdW  Elec       q    Type
REMARK                         _______ _______ _______ _____ _____    ______ ____
ROOT
ATOM      1  C   LIG    1       -4.142 -10.560 -18.858  0.00  0.00    +0.183 A 
ATOM      2  C   LIG    1       -3.541 -11.758 -19.257  0.00  0.00    -0.160 A 
ATOM      3  C   LIG    1       -3.576 -12.869 -18.410  0.00  0.00    +0.098 A 
ATOM      4  C   LIG    1       -4.204 -12.780 -17.183  0.00  0.00    -0.013 A 
ATOM      5  C   LIG    1       -4.802 -11.583 -16.792  0.00  0.00    +0.306 A 
ATOM      6  O   LIG    1       -5.420 -11.496 -15.585  0.00  0.00    -0.605 OA
ATOM      7  C   LIG    1       -4.768 -10.479 -17.632  0.00  0.00    -0.195 A 
ENDROOT
BRANCH   7   8
ATOM      8  N   LIG    1       -5.404  -9.210 -17.211  0.00  0.00    +0.070 N 
ATOM      9  O   LIG    1       -4.827  -8.160 -17.375  0.00  0.00    -0.152 OA
ATOM     10  O   LIG    1       -6.501  -9.224 -16.704  0.00  0.00    -0.248 OA
ENDBRANCH   7   8
BRANCH   2  11
ATOM     11  C   LIG    1       -2.892 -11.845 -20.530  0.00  0.00    +0.286 C 
ATOM     12  N   LIG    1       -2.376 -11.916 -21.540  0.00  0.00    -0.466 NA
ENDBRANCH   2  11
BRANCH   4  13
ATOM     13  O   LIG    1       -4.240 -13.859 -16.358  0.00  0.00    -0.478 OA
ATOM     14  H   LIG    1       -5.110 -14.277 -16.293  0.00  0.00    +0.372 HD
ENDBRANCH   4  13
TORSDOF 3
ENDMDL
MODEL 8
REMARK VINA RESULT:      -5.1      3.826      5.498
REMARK  Name = CHEMBL169891
REMARK                            x       y       z     vdW  Elec       q    Type
REMARK                         _______ _______ _______ _____ _____    ______ ____
ROOT
ATOM      1  C   LIG    1       -9.234  -5.303 -20.665  0.00  0.00    +0.183 A 
ATOM      2  C   LIG    1       -9.028  -4.624 -21.869  0.00  0.00    -0.160 A 
ATOM      3  C   LIG    1       -8.001  -3.681 -21.969  0.00  0.00    +0.098 A 
ATOM      4  C   LIG    1       -7.193  -3.427 -20.877  0.00  0.00    -0.013 A 
ATOM      5  C   LIG    1       -7.404  -4.108 -19.680  0.00  0.00    +0.306 A 
ATOM      6  O   LIG    1       -6.609  -3.857 -18.608  0.00  0.00    -0.605 OA
ATOM      7  C   LIG    1       -8.425  -5.044 -19.581  0.00  0.00    -0.195 A 
ENDROOT
BRANCH   7   8
ATOM      8  N   LIG    1       -8.644  -5.765 -18.306  0.00  0.00    +0.070 N 
ATOM      9  O   LIG    1       -8.088  -6.820 -18.105  0.00  0.00    -0.152 OA
ATOM     10  O   LIG    1       -9.379  -5.299 -17.467  0.00  0.00    -0.248 OA
ENDBRANCH   7   8
BRANCH   2  11
ATOM     11  C   LIG    1       -9.867  -4.892 -22.998  0.00  0.00    +0.286 C 
ATOM     12  N   LIG    1      -10.533  -5.105 -23.894  0.00  0.00    -0.466 NA
ENDBRANCH   2  11
BRANCH   4  13
ATOM     13  O   LIG    1       -6.193  -2.511 -20.971  0.00  0.00    -0.478 OA
ATOM     14  H   LIG    1       -6.293  -1.756 -20.375  0.00  0.00    +0.372 HD
ENDBRANCH   4  13
TORSDOF 3
ENDMDL
MODEL 9
REMARK VINA RESULT:      -4.8     10.185     11.706
REMARK  Name = CHEMBL169891
REMARK                            x       y       z     vdW  Elec       q    Type
REMARK                         _______ _______ _______ _____ _____    ______ ____
ROOT
ATOM      1  C   LIG    1       -3.996 -11.257 -19.256  0.00  0.00    +0.183 A 
ATOM      2  C   LIG    1       -4.378 -10.796 -17.992  0.00  0.00    -0.160 A 
ATOM      3  C   LIG    1       -4.428 -11.685 -16.914  0.00  0.00    +0.098 A 
ATOM      4  C   LIG    1       -4.099 -13.013 -17.102  0.00  0.00    -0.013 A 
ATOM      5  C   LIG    1       -3.719 -13.466 -18.364  0.00  0.00    +0.306 A 
ATOM      6  O   LIG    1       -3.396 -14.772 -18.547  0.00  0.00    -0.605 OA
ATOM      7  C   LIG    1       -3.669 -12.584 -19.435  0.00  0.00    -0.195 A 
ENDROOT
BRANCH   7   8
ATOM      8  N   LIG    1       -3.264 -13.070 -20.774  0.00  0.00    +0.070 N 
ATOM      9  O   LIG    1       -2.104 -13.020 -21.110  0.00  0.00    -0.152 OA
ATOM     10  O   LIG    1       -4.094 -13.518 -21.530  0.00  0.00    -0.248 OA
ENDBRANCH   7   8
BRANCH   2  11
ATOM     11  C   LIG    1       -4.717  -9.418 -17.803  0.00  0.00    +0.286 C 
ATOM     12  N   LIG    1       -4.986  -8.324 -17.653  0.00  0.00    -0.466 NA
ENDBRANCH   2  11
BRANCH   4  13
ATOM     13  O   LIG    1       -4.146 -13.879 -16.055  0.00  0.00    -0.478 OA
ATOM     14  H   LIG    1       -4.262 -13.451 -15.195  0.00  0.00    +0.372 HD
ENDBRANCH   4  13
TORSDOF 3
ENDMDL
