MODEL 1
REMARK VINA RESULT:      -6.7      0.000      0.000
REMARK  Name = CHEMBL169891
REMARK                            x       y       z     vdW  Elec       q    Type
REMARK                         _______ _______ _______ _____ _____    ______ ____
ROOT
ATOM      1  C   LIG    1       -6.723  -1.346 -18.482  0.00  0.00    +0.168 A 
ATOM      2  C   LIG    1       -6.254  -2.159 -19.518  0.00  0.00    -0.009 A 
ATOM      3  C   LIG    1       -5.168  -1.741 -20.293  0.00  0.00    +0.131 A 
ATOM      4  C   LIG    1       -4.563  -0.528 -20.032  0.00  0.00    +0.088 A 
ATOM      5  C   LIG    1       -5.036   0.278 -18.998  0.00  0.00    +0.182 A 
ATOM      6  C   LIG    1       -6.114  -0.136 -18.227  0.00  0.00    -0.068 A 
ENDROOT
BRANCH   6   7
ATOM      7  N   LIG    1       -6.612   0.724 -17.130  0.00  0.00    +0.034 N 
ATOM      8  O   LIG    1       -6.461   0.384 -15.979  0.00  0.00    -0.125 OA
ATOM      9  O   LIG    1       -7.169   1.766 -17.384  0.00  0.00    -0.155 OA
ENDBRANCH   6   7
BRANCH   2  10
ATOM     10  C   LIG    1       -6.883  -3.418 -19.784  0.00  0.00    +0.244 C 
ATOM     11  N   LIG    1       -7.383  -4.416 -19.995  0.00  0.00    -0.375 NA
ENDBRANCH   2  10
BRANCH   4  12
ATOM     12  O   LIG    1       -3.507  -0.119 -20.784  0.00  0.00    -0.468 OA
ATOM     13  H   LIG    1       -2.671  -0.079 -20.299  0.00  0.00    +0.401 HD
ENDBRANCH   4  12
BRANCH   5  14
ATOM     14  O   LIG    1       -4.440   1.472 -18.741  0.00  0.00    -0.458 OA
ATOM     15  H   LIG    1       -3.734   1.701 -19.361  0.00  0.00    +0.410 HD
ENDBRANCH   5  14
TORSDOF 4
ENDMDL
MODEL 2
REMARK VINA RESULT:      -6.6      1.506      3.286
REMARK  Name = CHEMBL169891
REMARK                            x       y       z     vdW  Elec       q    Type
REMARK                         _______ _______ _______ _____ _____    ______ ____
ROOT
ATOM      1  C   LIG    1       -5.770  -2.093 -19.545  0.00  0.00    +0.168 A 
ATOM      2  C   LIG    1       -7.070  -2.289 -19.071  0.00  0.00    -0.009 A 
ATOM      3  C   LIG    1       -7.701  -1.281 -18.335  0.00  0.00    +0.131 A 
ATOM      4  C   LIG    1       -7.038  -0.097 -18.082  0.00  0.00    +0.088 A 
ATOM      5  C   LIG    1       -5.741   0.092 -18.557  0.00  0.00    +0.182 A 
ATOM      6  C   LIG    1       -5.114  -0.909 -19.288  0.00  0.00    -0.068 A 
ENDROOT
BRANCH   6   7
ATOM      7  N   LIG    1       -3.737  -0.703 -19.792  0.00  0.00    +0.034 N 
ATOM      8  O   LIG    1       -3.520   0.139 -20.632  0.00  0.00    -0.125 OA
ATOM      9  O   LIG    1       -2.830  -1.376 -19.361  0.00  0.00    -0.155 OA
ENDBRANCH   6   7
BRANCH   2  10
ATOM     10  C   LIG    1       -7.754  -3.518 -19.338  0.00  0.00    +0.244 C 
ATOM     11  N   LIG    1       -8.297  -4.494 -19.550  0.00  0.00    -0.375 NA
ENDBRANCH   2  10
BRANCH   4  12
ATOM     12  O   LIG    1       -7.649   0.885 -17.367  0.00  0.00    -0.468 OA
ATOM     13  H   LIG    1       -7.041   1.438 -16.857  0.00  0.00    +0.401 HD
ENDBRANCH   4  12
BRANCH   5  14
ATOM     14  O   LIG    1       -5.090   1.257 -18.307  0.00  0.00    -0.458 OA
ATOM     15  H   LIG    1       -4.527   1.233 -17.521  0.00  0.00    +0.410 HD
ENDBRANCH   5  14
TORSDOF 4
ENDMDL
MODEL 3
REMARK VINA RESULT:      -6.5      2.744      4.428
REMARK  Name = CHEMBL169891
REMARK                            x       y       z     vdW  Elec       q    Type
REMARK                         _______ _______ _______ _____ _____    ______ ____
ROOT
ATOM      1  C   LIG    1       -4.856  -0.845 -19.964  0.00  0.00    +0.168 A 
ATOM      2  C   LIG    1       -4.440   0.483 -19.826  0.00  0.00    -0.009 A 
ATOM      3  C   LIG    1       -5.175   1.363 -19.027  0.00  0.00    +0.131 A 
ATOM      4  C   LIG    1       -6.308   0.916 -18.375  0.00  0.00    +0.088 A 
ATOM      5  C   LIG    1       -6.717  -0.409 -18.516  0.00  0.00    +0.182 A 
ATOM      6  C   LIG    1       -5.988  -1.283 -19.311  0.00  0.00    -0.068 A 
ENDROOT
BRANCH   6   7
ATOM      7  N   LIG    1       -6.426  -2.689 -19.457  0.00  0.00    +0.034 N 
ATOM      8  O   LIG    1       -7.601  -2.946 -19.585  0.00  0.00    -0.125 OA
ATOM      9  O   LIG    1       -5.610  -3.581 -19.449  0.00  0.00    -0.155 OA
ENDBRANCH   6   7
BRANCH   2  10
ATOM     10  C   LIG    1       -3.264   0.940 -20.503  0.00  0.00    +0.244 C 
ATOM     11  N   LIG    1       -2.331   1.304 -21.040  0.00  0.00    -0.375 NA
ENDBRANCH   2  10
BRANCH   4  12
ATOM     12  O   LIG    1       -7.025   1.769 -17.596  0.00  0.00    -0.468 OA
ATOM     13  H   LIG    1       -7.964   1.816 -17.824  0.00  0.00    +0.401 HD
ENDBRANCH   4  12
BRANCH   5  14
ATOM     14  O   LIG    1       -7.831  -0.847 -17.875  0.00  0.00    -0.458 OA
ATOM     15  H   LIG    1       -7.776  -0.796 -16.911  0.00  0.00    +0.410 HD
ENDBRANCH   5  14
TORSDOF 4
ENDMDL
MODEL 4
REMARK VINA RESULT:      -5.9      9.694     11.111
REMARK  Name = CHEMBL169891
REMARK                            x       y       z     vdW  Elec       q    Type
REMARK                         _______ _______ _______ _____ _____    ______ ____
ROOT
ATOM      1  C   LIG    1       -4.157 -10.576 -18.759  0.00  0.00    +0.168 A 
ATOM      2  C   LIG    1       -3.544 -11.757 -19.187  0.00  0.00    -0.009 A 
ATOM      3  C   LIG    1       -3.584 -12.895 -18.377  0.00  0.00    +0.131 A 
ATOM      4  C   LIG    1       -4.230 -12.848 -17.157  0.00  0.00    +0.088 A 
ATOM      5  C   LIG    1       -4.839 -11.667 -16.736  0.00  0.00    +0.182 A 
ATOM      6  C   LIG    1       -4.800 -10.537 -17.541  0.00  0.00    -0.068 A 
ENDROOT
BRANCH   6   7
ATOM      7  N   LIG    1       -5.450  -9.285 -17.089  0.00  0.00    +0.034 N 
ATOM      8  O   LIG    1       -6.512  -9.330 -16.513  0.00  0.00    -0.125 OA
ATOM      9  O   LIG    1       -4.917  -8.220 -17.296  0.00  0.00    -0.155 OA
ENDBRANCH   6   7
BRANCH   2  10
ATOM     10  C   LIG    1       -2.877 -11.801 -20.454  0.00  0.00    +0.244 C 
ATOM     11  N   LIG    1       -2.347 -11.837 -21.458  0.00  0.00    -0.375 NA
ENDBRANCH   2  10
BRANCH   4  12
ATOM     12  O   LIG    1       -4.270 -13.953 -16.366  0.00  0.00    -0.468 OA
ATOM     13  H   LIG    1       -3.408 -14.367 -16.223  0.00  0.00    +0.401 HD
ENDBRANCH   4  12
BRANCH   5  14
ATOM     14  O   LIG    1       -5.474 -11.622 -15.536  0.00  0.00    -0.458 OA
ATOM     15  H   LIG    1       -6.171 -12.285 -15.434  0.00  0.00    +0.410 HD
ENDBRANCH   5  14
TORSDOF 4
ENDMDL
MODEL 5
REMARK VINA RESULT:      -5.5      9.934     11.576
REMARK  Name = CHEMBL169891
REMARK                            x       y       z     vdW  Elec       q    Type
REMARK                         _______ _______ _______ _____ _____    ______ ____
ROOT
ATOM      1  C   LIG    1       -3.392 -11.682 -18.776  0.00  0.00    +0.168 A 
ATOM      2  C   LIG    1       -3.488 -10.327 -19.106  0.00  0.00    -0.009 A 
ATOM      3  C   LIG    1       -4.255  -9.470 -18.311  0.00  0.00    +0.131 A 
ATOM      4  C   LIG    1       -4.915  -9.966 -17.204  0.00  0.00    +0.088 A 
ATOM      5  C   LIG    1       -4.815 -11.318 -16.880  0.00  0.00    +0.182 A 
ATOM      6  C   LIG    1       -4.053 -12.169 -17.669  0.00  0.00    -0.068 A 
ENDROOT
BRANCH   6   7
ATOM      7  N   LIG    1       -3.951 -13.605 -17.321  0.00  0.00    +0.034 N 
ATOM      8  O   LIG    1       -3.920 -13.945 -16.161  0.00  0.00    -0.125 OA
ATOM      9  O   LIG    1       -3.897 -14.436 -18.197  0.00  0.00    -0.155 OA
ENDBRANCH   6   7
BRANCH   2  10
ATOM     10  C   LIG    1       -2.801  -9.817 -20.254  0.00  0.00    +0.244 C 
ATOM     11  N   LIG    1       -2.256  -9.413 -21.165  0.00  0.00    -0.375 NA
ENDBRANCH   2  10
BRANCH   4  12
ATOM     12  O   LIG    1       -5.662  -9.135 -16.429  0.00  0.00    -0.468 OA
ATOM     13  H   LIG    1       -5.421  -9.148 -15.492  0.00  0.00    +0.401 HD
ENDBRANCH   4  12
BRANCH   5  14
ATOM     14  O   LIG    1       -5.464 -11.805 -15.791  0.00  0.00    -0.458 OA
ATOM     15  H   LIG    1       -4.942 -12.428 -15.267  0.00  0.00    +0.410 HD
ENDBRANCH   5  14
TORSDOF 4
ENDMDL
MODEL 6
REMARK VINA RESULT:      -5.3     10.498     12.209
REMARK  Name = CHEMBL169891
REMARK                            x       y       z     vdW  Elec       q    Type
REMARK                         _______ _______ _______ _____ _____    ______ ____
ROOT
ATOM      1  C   LIG    1       -3.299 -12.838 -19.368  0.00  0.00    +0.168 A 
ATOM      2  C   LIG    1       -3.510 -13.921 -18.510  0.00  0.00    -0.009 A 
ATOM      3  C   LIG    1       -4.089 -13.712 -17.255  0.00  0.00    +0.131 A 
ATOM      4  C   LIG    1       -4.450 -12.436 -16.869  0.00  0.00    +0.088 A 
ATOM      5  C   LIG    1       -4.237 -11.360 -17.729  0.00  0.00    +0.182 A 
ATOM      6  C   LIG    1       -3.663 -11.568 -18.976  0.00  0.00    -0.068 A 
ENDROOT
BRANCH   6   7
ATOM      7  N   LIG    1       -3.439 -10.421 -19.886  0.00  0.00    +0.034 N 
ATOM      8  O   LIG    1       -2.792  -9.471 -19.512  0.00  0.00    -0.125 OA
ATOM      9  O   LIG    1       -3.904 -10.437 -21.002  0.00  0.00    -0.155 OA
ENDBRANCH   6   7
BRANCH   2  10
ATOM     10  C   LIG    1       -3.135 -15.242 -18.916  0.00  0.00    +0.244 C 
ATOM     11  N   LIG    1       -2.837 -16.290 -19.239  0.00  0.00    -0.375 NA
ENDBRANCH   2  10
BRANCH   4  12
ATOM     12  O   LIG    1       -5.013 -12.230 -15.648  0.00  0.00    -0.468 OA
ATOM     13  H   LIG    1       -5.733 -11.583 -15.651  0.00  0.00    +0.401 HD
ENDBRANCH   4  12
BRANCH   5  14
ATOM     14  O   LIG    1       -4.593 -10.106 -17.348  0.00  0.00    -0.458 OA
ATOM     15  H   LIG    1       -5.286  -9.711 -17.894  0.00  0.00    +0.410 HD
ENDBRANCH   5  14
TORSDOF 4
ENDMDL
MODEL 7
REMARK VINA RESULT:      -5.2      6.829      8.752
REMARK  Name = CHEMBL169891
REMARK                            x       y       z     vdW  Elec       q    Type
REMARK                         _______ _______ _______ _____ _____    ______ ____
ROOT
ATOM      1  C   LIG    1       -6.570  -7.314 -18.096  0.00  0.00    +0.168 A 
ATOM      2  C   LIG    1       -7.790  -6.676 -17.855  0.00  0.00    -0.009 A 
ATOM      3  C   LIG    1       -8.631  -7.144 -16.842  0.00  0.00    +0.131 A 
ATOM      4  C   LIG    1       -8.252  -8.234 -16.082  0.00  0.00    +0.088 A 
ATOM      5  C   LIG    1       -7.035  -8.865 -16.328  0.00  0.00    +0.182 A 
ATOM      6  C   LIG    1       -6.199  -8.401 -17.335  0.00  0.00    -0.068 A 
ENDROOT
BRANCH   6   7
ATOM      7  N   LIG    1       -4.906  -9.076 -17.591  0.00  0.00    +0.034 N 
ATOM      8  O   LIG    1       -3.992  -8.461 -18.089  0.00  0.00    -0.125 OA
ATOM      9  O   LIG    1       -4.765 -10.241 -17.301  0.00  0.00    -0.155 OA
ENDBRANCH   6   7
BRANCH   2  10
ATOM     10  C   LIG    1       -8.177  -5.546 -18.645  0.00  0.00    +0.244 C 
ATOM     11  N   LIG    1       -8.484  -4.649 -19.271  0.00  0.00    -0.375 NA
ENDBRANCH   2  10
BRANCH   4  12
ATOM     12  O   LIG    1       -9.068  -8.691 -15.096  0.00  0.00    -0.468 OA
ATOM     13  H   LIG    1       -8.730  -8.538 -14.203  0.00  0.00    +0.401 HD
ENDBRANCH   4  12
BRANCH   5  14
ATOM     14  O   LIG    1       -6.663  -9.937 -15.581  0.00  0.00    -0.458 OA
ATOM     15  H   LIG    1       -6.593  -9.752 -14.634  0.00  0.00    +0.410 HD
ENDBRANCH   5  14
TORSDOF 4
ENDMDL
MODEL 8
REMARK VINA RESULT:      -5.2      3.898      5.257
REMARK  Name = CHEMBL169891
REMARK                            x       y       z     vdW  Elec       q    Type
REMARK                         _______ _______ _______ _____ _____    ______ ____
ROOT
ATOM      1  C   LIG    1       -7.545  -4.310 -18.547  0.00  0.00    +0.168 A 
ATOM      2  C   LIG    1       -8.449  -5.374 -18.472  0.00  0.00    -0.009 A 
ATOM      3  C   LIG    1       -9.200  -5.729 -19.597  0.00  0.00    +0.131 A 
ATOM      4  C   LIG    1       -9.043  -5.028 -20.777  0.00  0.00    +0.088 A 
ATOM      5  C   LIG    1       -8.140  -3.969 -20.845  0.00  0.00    +0.182 A 
ATOM      6  C   LIG    1       -7.395  -3.616 -19.728  0.00  0.00    -0.068 A 
ENDROOT
BRANCH   6   7
ATOM      7  N   LIG    1       -6.436  -2.490 -19.805  0.00  0.00    +0.034 N 
ATOM      8  O   LIG    1       -6.480  -1.602 -18.987  0.00  0.00    -0.125 OA
ATOM      9  O   LIG    1       -5.610  -2.460 -20.687  0.00  0.00    -0.155 OA
ENDBRANCH   6   7
BRANCH   2  10
ATOM     10  C   LIG    1       -8.606  -6.098 -17.247  0.00  0.00    +0.244 C 
ATOM     11  N   LIG    1       -8.732  -6.672 -16.275  0.00  0.00    -0.375 NA
ENDBRANCH   2  10
BRANCH   4  12
ATOM     12  O   LIG    1       -9.772  -5.372 -21.873  0.00  0.00    -0.468 OA
ATOM     13  H   LIG    1       -9.278  -5.881 -22.530  0.00  0.00    +0.401 HD
ENDBRANCH   4  12
BRANCH   5  14
ATOM     14  O   LIG    1       -7.987  -3.281 -22.006  0.00  0.00    -0.458 OA
ATOM     15  H   LIG    1       -7.507  -3.766 -22.691  0.00  0.00    +0.410 HD
ENDBRANCH   5  14
TORSDOF 4
ENDMDL
MODEL 9
REMARK VINA RESULT:      -5.1      8.594     10.511
REMARK  Name = CHEMBL169891
REMARK                            x       y       z     vdW  Elec       q    Type
REMARK                         _______ _______ _______ _____ _____    ______ ____
ROOT
ATOM      1  C   LIG    1       -4.843  -9.183 -18.404  0.00  0.00    +0.168 A 
ATOM      2  C   LIG    1       -5.838  -8.718 -17.539  0.00  0.00    -0.009 A 
ATOM      3  C   LIG    1       -6.179  -9.463 -16.406  0.00  0.00    +0.131 A 
ATOM      4  C   LIG    1       -5.529 -10.653 -16.145  0.00  0.00    +0.088 A 
ATOM      5  C   LIG    1       -4.538 -11.111 -17.011  0.00  0.00    +0.182 A 
ATOM      6  C   LIG    1       -4.200 -10.372 -18.137  0.00  0.00    -0.068 A 
ENDROOT
BRANCH   6   7
ATOM      7  N   LIG    1       -3.146 -10.863 -19.053  0.00  0.00    +0.034 N 
ATOM      8  O   LIG    1       -2.326 -10.094 -19.499  0.00  0.00    -0.125 OA
ATOM      9  O   LIG    1       -3.105 -12.033 -19.355  0.00  0.00    -0.155 OA
ENDBRANCH   6   7
BRANCH   2  10
ATOM     10  C   LIG    1       -6.508  -7.482 -17.814  0.00  0.00    +0.244 C 
ATOM     11  N   LIG    1       -7.039  -6.502 -18.031  0.00  0.00    -0.375 NA
ENDBRANCH   2  10
BRANCH   4  12
ATOM     12  O   LIG    1       -5.858 -11.379 -15.043  0.00  0.00    -0.468 OA
ATOM     13  H   LIG    1       -6.808 -11.416 -14.865  0.00  0.00    +0.401 HD
ENDBRANCH   4  12
BRANCH   5  14
ATOM     14  O   LIG    1       -3.900 -12.282 -16.753  0.00  0.00    -0.458 OA
ATOM     15  H   LIG    1       -2.944 -12.250 -16.897  0.00  0.00    +0.410 HD
ENDBRANCH   5  14
TORSDOF 4
ENDMDL
