MODEL 1
REMARK VINA RESULT:      -5.5      0.000      0.000
REMARK  Name = CHEMBL170549
REMARK                            x       y       z     vdW  Elec       q    Type
REMARK                         _______ _______ _______ _____ _____    ______ ____
ROOT
ATOM      1  C   LIG    1       -3.216 -12.792 -19.497  0.00  0.00    +0.152 A 
ATOM      2  C   LIG    1       -3.398 -13.908 -18.674  0.00  0.00    -0.252 A 
ATOM      3  C   LIG    1       -3.983 -13.755 -17.413  0.00  0.00    +0.106 A 
ATOM      4  C   LIG    1       -4.378 -12.502 -16.987  0.00  0.00    -0.065 A 
ATOM      5  C   LIG    1       -4.193 -11.393 -17.812  0.00  0.00    +0.299 A 
ATOM      6  O   LIG    1       -4.582 -10.163 -17.391  0.00  0.00    -0.656 OA
ATOM      7  C   LIG    1       -3.612 -11.546 -19.065  0.00  0.00    -0.212 A 
ENDROOT
BRANCH   2   8
ATOM      8  C   LIG    1       -2.977 -15.242 -19.135  0.00  0.00    +0.539 C 
ATOM      9  O   LIG    1       -2.209 -15.909 -18.455  0.00  0.00    -0.708 OA
ATOM     10  O   LIG    1       -3.393 -15.682 -20.198  0.00  0.00    -0.704 OA
ENDBRANCH   2   8
BRANCH   7  11
ATOM     11  N   LIG    1       -3.419 -10.365 -19.937  0.00  0.00    +0.081 N 
ATOM     12  O   LIG    1       -2.611  -9.517 -19.636  0.00  0.00    -0.183 OA
ATOM     13  O   LIG    1       -4.068 -10.250 -20.950  0.00  0.00    -0.270 OA
ENDBRANCH   7  11
BRANCH   4  14
ATOM     14  O   LIG    1       -4.947 -12.349 -15.761  0.00  0.00    -0.483 OA
ATOM     15  H   LIG    1       -4.339 -12.025 -15.082  0.00  0.00    +0.354 HD
ENDBRANCH   4  14
TORSDOF 3
ENDMDL
MODEL 2
REMARK VINA RESULT:      -5.5      1.706      4.216
REMARK  Name = CHEMBL170549
REMARK                            x       y       z     vdW  Elec       q    Type
REMARK                         _______ _______ _______ _____ _____    ______ ____
ROOT
ATOM      1  C   LIG    1       -4.198 -10.657 -18.937  0.00  0.00    +0.152 A 
ATOM      2  C   LIG    1       -4.720 -10.574 -17.642  0.00  0.00    -0.252 A 
ATOM      3  C   LIG    1       -4.692 -11.695 -16.806  0.00  0.00    +0.106 A 
ATOM      4  C   LIG    1       -4.146 -12.878 -17.263  0.00  0.00    -0.065 A 
ATOM      5  C   LIG    1       -3.626 -12.954 -18.555  0.00  0.00    +0.299 A 
ATOM      6  O   LIG    1       -3.091 -14.118 -19.002  0.00  0.00    -0.656 OA
ATOM      7  C   LIG    1       -3.655 -11.840 -19.385  0.00  0.00    -0.212 A 
ENDROOT
BRANCH   2   8
ATOM      8  C   LIG    1       -5.300  -9.309 -17.159  0.00  0.00    +0.539 C 
ATOM      9  O   LIG    1       -6.256  -9.325 -16.396  0.00  0.00    -0.708 OA
ATOM     10  O   LIG    1       -4.825  -8.241 -17.522  0.00  0.00    -0.704 OA
ENDBRANCH   2   8
BRANCH   7  11
ATOM     11  N   LIG    1       -3.102 -11.927 -20.755  0.00  0.00    +0.081 N 
ATOM     12  O   LIG    1       -3.796 -12.322 -21.663  0.00  0.00    -0.183 OA
ATOM     13  O   LIG    1       -1.957 -11.601 -20.966  0.00  0.00    -0.270 OA
ENDBRANCH   7  11
BRANCH   4  14
ATOM     14  O   LIG    1       -4.116 -13.971 -16.453  0.00  0.00    -0.483 OA
ATOM     15  H   LIG    1       -4.294 -13.776 -15.523  0.00  0.00    +0.354 HD
ENDBRANCH   4  14
TORSDOF 3
ENDMDL
MODEL 3
REMARK VINA RESULT:      -5.2      2.551      4.957
REMARK  Name = CHEMBL170549
REMARK                            x       y       z     vdW  Elec       q    Type
REMARK                         _______ _______ _______ _____ _____    ______ ____
ROOT
ATOM      1  C   LIG    1       -4.949  -9.506 -18.242  0.00  0.00    +0.152 A 
ATOM      2  C   LIG    1       -5.888  -9.176 -17.259  0.00  0.00    -0.252 A 
ATOM      3  C   LIG    1       -6.053 -10.007 -16.146  0.00  0.00    +0.106 A 
ATOM      4  C   LIG    1       -5.288 -11.150 -16.023  0.00  0.00    -0.065 A 
ATOM      5  C   LIG    1       -4.354 -11.473 -17.007  0.00  0.00    +0.299 A 
ATOM      6  O   LIG    1       -3.603 -12.597 -16.884  0.00  0.00    -0.656 OA
ATOM      7  C   LIG    1       -4.190 -10.648 -18.112  0.00  0.00    -0.212 A 
ENDROOT
BRANCH   2   8
ATOM      8  C   LIG    1       -6.700  -7.955 -17.395  0.00  0.00    +0.539 C 
ATOM      9  O   LIG    1       -7.863  -7.948 -17.015  0.00  0.00    -0.708 OA
ATOM     10  O   LIG    1       -6.212  -6.947 -17.888  0.00  0.00    -0.704 OA
ENDBRANCH   2   8
BRANCH   7  11
ATOM     11  N   LIG    1       -3.196 -10.996 -19.153  0.00  0.00    +0.081 N 
ATOM     12  O   LIG    1       -2.202 -10.321 -19.289  0.00  0.00    -0.183 OA
ATOM     13  O   LIG    1       -3.379 -11.955 -19.865  0.00  0.00    -0.270 OA
ENDBRANCH   7  11
BRANCH   4  14
ATOM     14  O   LIG    1       -5.445 -11.961 -14.943  0.00  0.00    -0.483 OA
ATOM     15  H   LIG    1       -5.850 -12.815 -15.147  0.00  0.00    +0.354 HD
ENDBRANCH   4  14
TORSDOF 3
ENDMDL
MODEL 4
REMARK VINA RESULT:      -5.1     13.307     14.511
REMARK  Name = CHEMBL170549
REMARK                            x       y       z     vdW  Elec       q    Type
REMARK                         _______ _______ _______ _____ _____    ______ ____
ROOT
ATOM      1  C   LIG    1        7.215  -4.758 -17.577  0.00  0.00    +0.152 A 
ATOM      2  C   LIG    1        6.999  -3.876 -16.514  0.00  0.00    -0.252 A 
ATOM      3  C   LIG    1        7.101  -2.496 -16.721  0.00  0.00    +0.106 A 
ATOM      4  C   LIG    1        7.413  -2.013 -17.976  0.00  0.00    -0.065 A 
ATOM      5  C   LIG    1        7.627  -2.898 -19.033  0.00  0.00    +0.299 A 
ATOM      6  O   LIG    1        7.933  -2.419 -20.265  0.00  0.00    -0.656 OA
ATOM      7  C   LIG    1        7.525  -4.267 -18.826  0.00  0.00    -0.212 A 
ENDROOT
BRANCH   2   8
ATOM      8  C   LIG    1        6.665  -4.398 -15.177  0.00  0.00    +0.539 C 
ATOM      9  O   LIG    1        7.047  -5.511 -14.842  0.00  0.00    -0.708 OA
ATOM     10  O   LIG    1        6.004  -3.719 -14.403  0.00  0.00    -0.704 OA
ENDBRANCH   2   8
BRANCH   7  11
ATOM     11  N   LIG    1        7.753  -5.202 -19.951  0.00  0.00    +0.081 N 
ATOM     12  O   LIG    1        6.825  -5.555 -20.641  0.00  0.00    -0.183 OA
ATOM     13  O   LIG    1        8.867  -5.613 -20.180  0.00  0.00    -0.270 OA
ENDBRANCH   7  11
BRANCH   4  14
ATOM     14  O   LIG    1        7.512  -0.672 -18.182  0.00  0.00    -0.483 OA
ATOM     15  H   LIG    1        8.366  -0.296 -17.926  0.00  0.00    +0.354 HD
ENDBRANCH   4  14
TORSDOF 3
ENDMDL
MODEL 5
REMARK VINA RESULT:      -5.0     13.716     15.059
REMARK  Name = CHEMBL170549
REMARK                            x       y       z     vdW  Elec       q    Type
REMARK                         _______ _______ _______ _____ _____    ______ ____
ROOT
ATOM      1  C   LIG    1        7.394  -2.454 -16.780  0.00  0.00    +0.152 A 
ATOM      2  C   LIG    1        7.051  -3.797 -16.592  0.00  0.00    -0.252 A 
ATOM      3  C   LIG    1        7.105  -4.687 -17.670  0.00  0.00    +0.106 A 
ATOM      4  C   LIG    1        7.497  -4.235 -18.914  0.00  0.00    -0.065 A 
ATOM      5  C   LIG    1        7.837  -2.895 -19.095  0.00  0.00    +0.299 A 
ATOM      6  O   LIG    1        8.223  -2.454 -20.319  0.00  0.00    -0.656 OA
ATOM      7  C   LIG    1        7.784  -2.012 -18.025  0.00  0.00    -0.212 A 
ENDROOT
BRANCH   2   8
ATOM      8  C   LIG    1        6.635  -4.273 -15.262  0.00  0.00    +0.539 C 
ATOM      9  O   LIG    1        7.023  -5.359 -14.852  0.00  0.00    -0.708 OA
ATOM     10  O   LIG    1        5.900  -3.584 -14.568  0.00  0.00    -0.704 OA
ENDBRANCH   2   8
BRANCH   7  11
ATOM     11  N   LIG    1        8.147  -0.590 -18.223  0.00  0.00    +0.081 N 
ATOM     12  O   LIG    1        7.317   0.196 -18.616  0.00  0.00    -0.183 OA
ATOM     13  O   LIG    1        9.272  -0.216 -17.990  0.00  0.00    -0.270 OA
ENDBRANCH   7  11
BRANCH   4  14
ATOM     14  O   LIG    1        7.551  -5.098 -19.964  0.00  0.00    -0.483 OA
ATOM     15  H   LIG    1        7.270  -5.998 -19.750  0.00  0.00    +0.354 HD
ENDBRANCH   4  14
TORSDOF 3
ENDMDL
MODEL 6
REMARK VINA RESULT:      -4.8      1.437      3.932
REMARK  Name = CHEMBL170549
REMARK                            x       y       z     vdW  Elec       q    Type
REMARK                         _______ _______ _______ _____ _____    ______ ____
ROOT
ATOM      1  C   LIG    1       -3.995 -10.378 -18.885  0.00  0.00    +0.152 A 
ATOM      2  C   LIG    1       -4.454 -11.172 -17.830  0.00  0.00    -0.252 A 
ATOM      3  C   LIG    1       -4.247 -12.555 -17.856  0.00  0.00    +0.106 A 
ATOM      4  C   LIG    1       -3.587 -13.130 -18.925  0.00  0.00    -0.065 A 
ATOM      5  C   LIG    1       -3.131 -12.332 -19.974  0.00  0.00    +0.299 A 
ATOM      6  O   LIG    1       -2.483 -12.900 -21.023  0.00  0.00    -0.656 OA
ATOM      7  C   LIG    1       -3.338 -10.959 -19.947  0.00  0.00    -0.212 A 
ENDROOT
BRANCH   2   8
ATOM      8  C   LIG    1       -5.156 -10.554 -16.692  0.00  0.00    +0.539 C 
ATOM      9  O   LIG    1       -5.613 -11.255 -15.800  0.00  0.00    -0.708 OA
ATOM     10  O   LIG    1       -5.283  -9.338 -16.640  0.00  0.00    -0.704 OA
ENDBRANCH   2   8
BRANCH   7  11
ATOM     11  N   LIG    1       -2.851 -10.118 -21.064  0.00  0.00    +0.081 N 
ATOM     12  O   LIG    1       -3.516  -9.999 -22.066  0.00  0.00    -0.183 OA
ATOM     13  O   LIG    1       -1.788  -9.549 -20.973  0.00  0.00    -0.270 OA
ENDBRANCH   7  11
BRANCH   4  14
ATOM     14  O   LIG    1       -3.382 -14.474 -18.954  0.00  0.00    -0.483 OA
ATOM     15  H   LIG    1       -2.556 -14.737 -19.383  0.00  0.00    +0.354 HD
ENDBRANCH   4  14
TORSDOF 3
ENDMDL
MODEL 7
REMARK VINA RESULT:      -4.7     11.360     13.113
REMARK  Name = CHEMBL170549
REMARK                            x       y       z     vdW  Elec       q    Type
REMARK                         _______ _______ _______ _____ _____    ______ ____
ROOT
ATOM      1  C   LIG    1        6.282  -6.332 -17.123  0.00  0.00    +0.152 A 
ATOM      2  C   LIG    1        6.728  -5.037 -16.841  0.00  0.00    -0.252 A 
ATOM      3  C   LIG    1        7.283  -4.253 -17.859  0.00  0.00    +0.106 A 
ATOM      4  C   LIG    1        7.386  -4.763 -19.138  0.00  0.00    -0.065 A 
ATOM      5  C   LIG    1        6.939  -6.055 -19.413  0.00  0.00    +0.299 A 
ATOM      6  O   LIG    1        7.041  -6.553 -20.671  0.00  0.00    -0.656 OA
ATOM      7  C   LIG    1        6.388  -6.832 -18.402  0.00  0.00    -0.212 A 
ENDROOT
BRANCH   2   8
ATOM      8  C   LIG    1        6.615  -4.498 -15.475  0.00  0.00    +0.539 C 
ATOM      9  O   LIG    1        6.247  -3.344 -15.301  0.00  0.00    -0.708 OA
ATOM     10  O   LIG    1        6.890  -5.204 -14.514  0.00  0.00    -0.704 OA
ENDBRANCH   2   8
BRANCH   7  11
ATOM     11  N   LIG    1        5.915  -8.203 -18.700  0.00  0.00    +0.081 N 
ATOM     12  O   LIG    1        6.660  -9.144 -18.555  0.00  0.00    -0.183 OA
ATOM     13  O   LIG    1        4.784  -8.381 -19.088  0.00  0.00    -0.270 OA
ENDBRANCH   7  11
BRANCH   4  14
ATOM     14  O   LIG    1        7.924  -4.004 -20.131  0.00  0.00    -0.483 OA
ATOM     15  H   LIG    1        8.332  -3.184 -19.822  0.00  0.00    +0.354 HD
ENDBRANCH   4  14
TORSDOF 3
ENDMDL
MODEL 8
REMARK VINA RESULT:      -4.6      1.792      4.661
REMARK  Name = CHEMBL170549
REMARK                            x       y       z     vdW  Elec       q    Type
REMARK                         _______ _______ _______ _____ _____    ______ ____
ROOT
ATOM      1  C   LIG    1       -4.112 -12.295 -18.641  0.00  0.00    +0.152 A 
ATOM      2  C   LIG    1       -4.197 -10.965 -18.217  0.00  0.00    -0.252 A 
ATOM      3  C   LIG    1       -3.555  -9.959 -18.946  0.00  0.00    +0.106 A 
ATOM      4  C   LIG    1       -2.841 -10.284 -20.083  0.00  0.00    -0.065 A 
ATOM      5  C   LIG    1       -2.760 -11.612 -20.500  0.00  0.00    +0.299 A 
ATOM      6  O   LIG    1       -2.058 -11.928 -21.618  0.00  0.00    -0.656 OA
ATOM      7  C   LIG    1       -3.397 -12.611 -19.776  0.00  0.00    -0.212 A 
ENDROOT
BRANCH   2   8
ATOM      8  C   LIG    1       -4.961 -10.625 -17.005  0.00  0.00    +0.539 C 
ATOM      9  O   LIG    1       -5.215  -9.456 -16.750  0.00  0.00    -0.708 OA
ATOM     10  O   LIG    1       -5.342 -11.512 -16.252  0.00  0.00    -0.704 OA
ENDBRANCH   2   8
BRANCH   7  11
ATOM     11  N   LIG    1       -3.308 -14.019 -20.224  0.00  0.00    +0.081 N 
ATOM     12  O   LIG    1       -2.509 -14.767 -19.711  0.00  0.00    -0.183 OA
ATOM     13  O   LIG    1       -4.034 -14.420 -21.103  0.00  0.00    -0.270 OA
ENDBRANCH   7  11
BRANCH   4  14
ATOM     14  O   LIG    1       -2.216  -9.308 -20.795  0.00  0.00    -0.483 OA
ATOM     15  H   LIG    1       -2.192  -8.450 -20.349  0.00  0.00    +0.354 HD
ENDBRANCH   4  14
TORSDOF 3
ENDMDL
MODEL 9
REMARK VINA RESULT:      -4.5     12.654     14.332
REMARK  Name = CHEMBL170549
REMARK                            x       y       z     vdW  Elec       q    Type
REMARK                         _______ _______ _______ _____ _____    ______ ____
ROOT
ATOM      1  C   LIG    1        7.475  -3.939 -18.826  0.00  0.00    +0.152 A 
ATOM      2  C   LIG    1        7.689  -2.846 -17.979  0.00  0.00    -0.252 A 
ATOM      3  C   LIG    1        7.406  -2.956 -16.614  0.00  0.00    +0.106 A 
ATOM      4  C   LIG    1        6.918  -4.144 -16.108  0.00  0.00    -0.065 A 
ATOM      5  C   LIG    1        6.706  -5.230 -16.957  0.00  0.00    +0.299 A 
ATOM      6  O   LIG    1        6.226  -6.397 -16.457  0.00  0.00    -0.656 OA
ATOM      7  C   LIG    1        6.988  -5.120 -18.313  0.00  0.00    -0.212 A 
ENDROOT
BRANCH   2   8
ATOM      8  C   LIG    1        8.212  -1.581 -18.525  0.00  0.00    +0.539 C 
ATOM      9  O   LIG    1        7.744  -0.514 -18.152  0.00  0.00    -0.708 OA
ATOM     10  O   LIG    1        9.113  -1.598 -19.352  0.00  0.00    -0.704 OA
ENDBRANCH   2   8
BRANCH   7  11
ATOM     11  N   LIG    1        6.762  -6.277 -19.209  0.00  0.00    +0.081 N 
ATOM     12  O   LIG    1        7.674  -7.025 -19.472  0.00  0.00    -0.183 OA
ATOM     13  O   LIG    1        5.665  -6.473 -19.678  0.00  0.00    -0.270 OA
ENDBRANCH   7  11
BRANCH   4  14
ATOM     14  O   LIG    1        6.642  -4.255 -14.781  0.00  0.00    -0.483 OA
ATOM     15  H   LIG    1        5.793  -3.870 -14.521  0.00  0.00    +0.354 HD
ENDBRANCH   4  14
TORSDOF 3
ENDMDL
