MODEL 1
REMARK VINA RESULT:      -5.5      0.000      0.000
REMARK  Name = CHEMBL1089504
REMARK                            x       y       z     vdW  Elec       q    Type
REMARK                         _______ _______ _______ _____ _____    ______ ____
ROOT
ATOM      1  C   LIG    1        6.056  -7.310 -19.205  0.00  0.00    -0.265 A 
ATOM      2  C   LIG    1        6.719  -6.267 -19.781  0.00  0.00    +0.098 A 
ATOM      3 CL   LIG    1        7.108  -6.312 -21.471  0.00  0.00    -0.035 Cl
ATOM      4  C   LIG    1        7.086  -5.156 -19.001  0.00  0.00    -0.216 A 
ATOM      5  C   LIG    1        7.776  -3.985 -19.416  0.00  0.00    +0.109 A 
ATOM      6  C   LIG    1        8.058  -2.993 -18.530  0.00  0.00    +0.018 A 
ATOM      7  C   LIG    1        7.684  -3.086 -17.185  0.00  0.00    +0.331 A 
ATOM      8  O   LIG    1        7.979  -2.081 -16.319  0.00  0.00    -0.622 OA
ATOM      9  C   LIG    1        7.011  -4.213 -16.745  0.00  0.00    -0.165 A 
ATOM     10  C   LIG    1        6.721  -5.224 -17.636  0.00  0.00    +0.012 A 
ATOM     11  S   LIG    1        5.895  -6.790 -17.505  0.00  0.00    +0.113 S 
ENDROOT
BRANCH   9  12
ATOM     12  N   LIG    1        6.607  -4.333 -15.326  0.00  0.00    +0.062 N 
ATOM     13  O   LIG    1        7.039  -5.235 -14.648  0.00  0.00    -0.160 OA
ATOM     14  O   LIG    1        5.844  -3.528 -14.845  0.00  0.00    -0.161 OA
ENDBRANCH   9  12
BRANCH   1  15
ATOM     15  C   LIG    1        5.587  -8.549 -19.828  0.00  0.00    +0.558 C 
ATOM     16  O   LIG    1        6.386  -9.407 -20.153  0.00  0.00    -0.490 OA
BRANCH  15  18
ATOM     17  C   LIG    1        3.511  -7.607 -20.475  0.00  0.00    +0.261 C 
ATOM     18  O   LIG    1        4.269  -8.740 -20.043  0.00  0.00    -0.348 OA
ENDBRANCH  15  18
ENDBRANCH   1  15
BRANCH   6  19
ATOM     19  O   LIG    1        8.719  -1.885 -18.961  0.00  0.00    -0.478 OA
ATOM     20  H   LIG    1        9.336  -2.053 -19.686  0.00  0.00    +0.378 HD
ENDBRANCH   6  19
TORSDOF 4
ENDMDL
MODEL 2
REMARK VINA RESULT:      -5.5     11.879     13.080
REMARK  Name = CHEMBL1089504
REMARK                            x       y       z     vdW  Elec       q    Type
REMARK                         _______ _______ _______ _____ _____    ______ ____
ROOT
ATOM      1  C   LIG    1       -2.394 -14.901 -20.919  0.00  0.00    -0.265 A 
ATOM      2  C   LIG    1       -2.930 -15.014 -19.670  0.00  0.00    +0.098 A 
ATOM      3 CL   LIG    1       -3.086 -16.576 -18.930  0.00  0.00    -0.035 Cl
ATOM      4  C   LIG    1       -3.355 -13.862 -18.984  0.00  0.00    -0.216 A 
ATOM      5  C   LIG    1       -3.934 -13.777 -17.689  0.00  0.00    +0.109 A 
ATOM      6  C   LIG    1       -4.293 -12.576 -17.165  0.00  0.00    +0.018 A 
ATOM      7  C   LIG    1       -4.110 -11.385 -17.875  0.00  0.00    +0.331 A 
ATOM      8  O   LIG    1       -4.480 -10.196 -17.330  0.00  0.00    -0.622 OA
ATOM      9  C   LIG    1       -3.550 -11.429 -19.140  0.00  0.00    -0.165 A 
ATOM     10  C   LIG    1       -3.182 -12.643 -19.680  0.00  0.00    +0.012 A 
ATOM     11  S   LIG    1       -2.445 -13.142 -21.216  0.00  0.00    +0.113 S 
ENDROOT
BRANCH   9  12
ATOM     12  N   LIG    1       -3.348 -10.180 -19.910  0.00  0.00    +0.062 N 
ATOM     13  O   LIG    1       -4.025  -9.955 -20.885  0.00  0.00    -0.160 OA
ATOM     14  O   LIG    1       -2.506  -9.385 -19.562  0.00  0.00    -0.161 OA
ENDBRANCH   9  12
BRANCH   1  15
ATOM     15  C   LIG    1       -1.895 -15.961 -21.797  0.00  0.00    +0.558 C 
ATOM     16  O   LIG    1       -2.510 -16.257 -22.803  0.00  0.00    -0.490 OA
BRANCH  15  18
ATOM     17  C   LIG    1        0.377 -15.806 -21.142  0.00  0.00    +0.261 C 
ATOM     18  O   LIG    1       -0.753 -16.610 -21.490  0.00  0.00    -0.348 OA
ENDBRANCH  15  18
ENDBRANCH   1  15
BRANCH   6  19
ATOM     19  O   LIG    1       -4.845 -12.531 -15.922  0.00  0.00    -0.478 OA
ATOM     20  H   LIG    1       -4.423 -13.122 -15.284  0.00  0.00    +0.378 HD
ENDBRANCH   6  19
TORSDOF 4
ENDMDL
MODEL 3
REMARK VINA RESULT:      -5.4     11.902     13.233
REMARK  Name = CHEMBL1089504
REMARK                            x       y       z     vdW  Elec       q    Type
REMARK                         _______ _______ _______ _____ _____    ______ ____
ROOT
ATOM      1  C   LIG    1       -2.440 -14.981 -21.089  0.00  0.00    -0.265 A 
ATOM      2  C   LIG    1       -2.945 -15.111 -19.830  0.00  0.00    +0.098 A 
ATOM      3 CL   LIG    1       -3.112 -16.686 -19.120  0.00  0.00    -0.035 Cl
ATOM      4  C   LIG    1       -3.330 -13.967 -19.108  0.00  0.00    -0.216 A 
ATOM      5  C   LIG    1       -3.874 -13.901 -17.797  0.00  0.00    +0.109 A 
ATOM      6  C   LIG    1       -4.197 -12.704 -17.238  0.00  0.00    +0.018 A 
ATOM      7  C   LIG    1       -4.009 -11.501 -17.927  0.00  0.00    +0.331 A 
ATOM      8  O   LIG    1       -4.342 -10.319 -17.346  0.00  0.00    -0.622 OA
ATOM      9  C   LIG    1       -3.483 -11.528 -19.206  0.00  0.00    -0.165 A 
ATOM     10  C   LIG    1       -3.152 -12.736 -19.782  0.00  0.00    +0.012 A 
ATOM     11  S   LIG    1       -2.464 -13.215 -21.347  0.00  0.00    +0.113 S 
ENDROOT
BRANCH   9  12
ATOM     12  N   LIG    1       -3.277 -10.266 -19.954  0.00  0.00    +0.062 N 
ATOM     13  O   LIG    1       -3.990  -9.996 -20.892  0.00  0.00    -0.160 OA
ATOM     14  O   LIG    1       -2.396  -9.506 -19.626  0.00  0.00    -0.161 OA
ENDBRANCH   9  12
BRANCH   1  15
ATOM     15  C   LIG    1       -1.983 -16.030 -22.003  0.00  0.00    +0.558 C 
ATOM     16  O   LIG    1       -0.797 -16.159 -22.235  0.00  0.00    -0.490 OA
BRANCH  15  18
ATOM     17  C   LIG    1       -4.027 -16.243 -23.182  0.00  0.00    +0.261 C 
ATOM     18  O   LIG    1       -2.879 -16.852 -22.588  0.00  0.00    -0.348 OA
ENDBRANCH  15  18
ENDBRANCH   1  15
BRANCH   6  19
ATOM     19  O   LIG    1       -4.715 -12.676 -15.981  0.00  0.00    -0.478 OA
ATOM     20  H   LIG    1       -4.149 -12.235 -15.332  0.00  0.00    +0.378 HD
ENDBRANCH   6  19
TORSDOF 4
ENDMDL
MODEL 4
REMARK VINA RESULT:      -4.7      7.707      9.459
REMARK  Name = CHEMBL1089504
REMARK                            x       y       z     vdW  Elec       q    Type
REMARK                         _______ _______ _______ _____ _____    ______ ____
ROOT
ATOM      1  C   LIG    1       -1.828 -10.047 -21.421  0.00  0.00    -0.265 A 
ATOM      2  C   LIG    1       -2.274  -9.239 -22.425  0.00  0.00    +0.098 A 
ATOM      3 CL   LIG    1       -3.786  -9.578 -23.205  0.00  0.00    -0.035 Cl
ATOM      4  C   LIG    1       -1.506  -8.131 -22.825  0.00  0.00    -0.216 A 
ATOM      5  C   LIG    1       -1.800  -7.183 -23.842  0.00  0.00    +0.109 A 
ATOM      6  C   LIG    1       -0.944  -6.161 -24.108  0.00  0.00    +0.018 A 
ATOM      7  C   LIG    1        0.250  -6.004 -23.398  0.00  0.00    +0.331 A 
ATOM      8  O   LIG    1        1.089  -4.974 -23.685  0.00  0.00    -0.622 OA
ATOM      9  C   LIG    1        0.570  -6.908 -22.401  0.00  0.00    -0.165 A 
ATOM     10  C   LIG    1       -0.291  -7.948 -22.123  0.00  0.00    +0.012 A 
ATOM     11  S   LIG    1       -0.279  -9.289 -20.960  0.00  0.00    +0.113 S 
ENDROOT
BRANCH   9  12
ATOM     12  N   LIG    1        1.830  -6.761 -21.637  0.00  0.00    +0.062 N 
ATOM     13  O   LIG    1        2.853  -7.249 -22.057  0.00  0.00    -0.160 OA
ATOM     14  O   LIG    1        1.836  -6.153 -20.592  0.00  0.00    -0.161 OA
ENDBRANCH   9  12
BRANCH   1  15
ATOM     15  C   LIG    1       -2.464 -11.238 -20.857  0.00  0.00    +0.558 C 
ATOM     16  O   LIG    1       -2.534 -12.259 -21.514  0.00  0.00    -0.490 OA
BRANCH  15  18
ATOM     17  C   LIG    1       -3.615  -9.992 -19.202  0.00  0.00    +0.261 C 
ATOM     18  O   LIG    1       -2.975 -11.204 -19.608  0.00  0.00    -0.348 OA
ENDBRANCH  15  18
ENDBRANCH   1  15
BRANCH   6  19
ATOM     19  O   LIG    1       -1.256  -5.271 -25.089  0.00  0.00    -0.478 OA
ATOM     20  H   LIG    1       -0.492  -4.954 -25.590  0.00  0.00    +0.378 HD
ENDBRANCH   6  19
TORSDOF 4
ENDMDL
MODEL 5
REMARK VINA RESULT:      -4.7      9.888     12.146
REMARK  Name = CHEMBL1089504
REMARK                            x       y       z     vdW  Elec       q    Type
REMARK                         _______ _______ _______ _____ _____    ______ ____
ROOT
ATOM      1  C   LIG    1       -1.226  -9.965 -22.058  0.00  0.00    -0.265 A 
ATOM      2  C   LIG    1       -1.594  -9.627 -20.789  0.00  0.00    +0.098 A 
ATOM      3 CL   LIG    1       -1.094  -8.109 -20.115  0.00  0.00    -0.035 Cl
ATOM      4  C   LIG    1       -2.380 -10.513 -20.030  0.00  0.00    -0.216 A 
ATOM      5  C   LIG    1       -2.857 -10.342 -18.702  0.00  0.00    +0.109 A 
ATOM      6  C   LIG    1       -3.612 -11.302 -18.105  0.00  0.00    +0.018 A 
ATOM      7  C   LIG    1       -3.944 -12.488 -18.769  0.00  0.00    +0.331 A 
ATOM      8  O   LIG    1       -4.698 -13.433 -18.149  0.00  0.00    -0.622 OA
ATOM      9  C   LIG    1       -3.496 -12.690 -20.062  0.00  0.00    -0.165 A 
ATOM     10  C   LIG    1       -2.730 -11.721 -20.676  0.00  0.00    +0.012 A 
ATOM     11  S   LIG    1       -1.976 -11.570 -22.276  0.00  0.00    +0.113 S 
ENDROOT
BRANCH   9  12
ATOM     12  N   LIG    1       -3.835 -13.938 -20.782  0.00  0.00    +0.062 N 
ATOM     13  O   LIG    1       -3.232 -14.958 -20.542  0.00  0.00    -0.160 OA
ATOM     14  O   LIG    1       -4.715 -13.938 -21.611  0.00  0.00    -0.161 OA
ENDBRANCH   9  12
BRANCH   1  15
ATOM     15  C   LIG    1       -0.420  -9.198 -23.009  0.00  0.00    +0.558 C 
ATOM     16  O   LIG    1        0.785  -9.357 -23.052  0.00  0.00    -0.490 OA
BRANCH  15  18
ATOM     17  C   LIG    1       -0.861  -6.927 -23.523  0.00  0.00    +0.261 C 
ATOM     18  O   LIG    1       -1.013  -8.313 -23.837  0.00  0.00    -0.348 OA
ENDBRANCH  15  18
ENDBRANCH   1  15
BRANCH   6  19
ATOM     19  O   LIG    1       -4.053 -11.106 -16.833  0.00  0.00    -0.478 OA
ATOM     20  H   LIG    1       -3.827 -11.822 -16.224  0.00  0.00    +0.378 HD
ENDBRANCH   6  19
TORSDOF 4
ENDMDL
MODEL 6
REMARK VINA RESULT:      -4.5      6.929     10.754
REMARK  Name = CHEMBL1089504
REMARK                            x       y       z     vdW  Elec       q    Type
REMARK                         _______ _______ _______ _____ _____    ______ ____
ROOT
ATOM      1  C   LIG    1        0.588  -7.892 -21.354  0.00  0.00    -0.265 A 
ATOM      2  C   LIG    1       -0.261  -7.585 -22.375  0.00  0.00    +0.098 A 
ATOM      3 CL   LIG    1        0.100  -6.259 -23.435  0.00  0.00    -0.035 Cl
ATOM      4  C   LIG    1       -1.428  -8.345 -22.567  0.00  0.00    -0.216 A 
ATOM      5  C   LIG    1       -2.426  -8.180 -23.565  0.00  0.00    +0.109 A 
ATOM      6  C   LIG    1       -3.504  -9.007 -23.614  0.00  0.00    +0.018 A 
ATOM      7  C   LIG    1       -3.673 -10.044 -22.691  0.00  0.00    +0.331 A 
ATOM      8  O   LIG    1       -4.760 -10.856 -22.761  0.00  0.00    -0.622 OA
ATOM      9  C   LIG    1       -2.721 -10.234 -21.704  0.00  0.00    -0.165 A 
ATOM     10  C   LIG    1       -1.624  -9.401 -21.647  0.00  0.00    +0.012 A 
ATOM     11  S   LIG    1       -0.204  -9.296 -20.586  0.00  0.00    +0.113 S 
ENDROOT
BRANCH   9  12
ATOM     12  N   LIG    1       -2.880 -11.325 -20.716  0.00  0.00    +0.062 N 
ATOM     13  O   LIG    1       -2.424 -12.421 -20.946  0.00  0.00    -0.160 OA
ATOM     14  O   LIG    1       -3.466 -11.120 -19.679  0.00  0.00    -0.161 OA
ENDBRANCH   9  12
BRANCH   1  15
ATOM     15  C   LIG    1        1.843  -7.237 -20.981  0.00  0.00    +0.558 C 
ATOM     16  O   LIG    1        1.836  -6.083 -20.598  0.00  0.00    -0.490 OA
BRANCH  15  18
ATOM     17  C   LIG    1        4.079  -7.464 -20.230  0.00  0.00    +0.261 C 
ATOM     18  O   LIG    1        3.008  -7.913 -21.063  0.00  0.00    -0.348 OA
ENDBRANCH  15  18
ENDBRANCH   1  15
BRANCH   6  19
ATOM     19  O   LIG    1       -4.441  -8.821 -24.583  0.00  0.00    -0.478 OA
ATOM     20  H   LIG    1       -4.425  -7.939 -24.981  0.00  0.00    +0.378 HD
ENDBRANCH   6  19
TORSDOF 4
ENDMDL
MODEL 7
REMARK VINA RESULT:      -4.4      4.248      6.296
REMARK  Name = CHEMBL1089504
REMARK                            x       y       z     vdW  Elec       q    Type
REMARK                         _______ _______ _______ _____ _____    ______ ____
ROOT
ATOM      1  C   LIG    1        1.476  -7.892 -21.395  0.00  0.00    -0.265 A 
ATOM      2  C   LIG    1        1.993  -9.110 -21.064  0.00  0.00    +0.098 A 
ATOM      3 CL   LIG    1        1.088 -10.554 -21.388  0.00  0.00    -0.035 Cl
ATOM      4  C   LIG    1        3.260  -9.191 -20.459  0.00  0.00    -0.216 A 
ATOM      5  C   LIG    1        3.958 -10.357 -20.043  0.00  0.00    +0.109 A 
ATOM      6  C   LIG    1        5.186 -10.264 -19.469  0.00  0.00    +0.018 A 
ATOM      7  C   LIG    1        5.806  -9.027 -19.264  0.00  0.00    +0.331 A 
ATOM      8  O   LIG    1        7.034  -8.961 -18.686  0.00  0.00    -0.622 OA
ATOM      9  C   LIG    1        5.155  -7.870 -19.656  0.00  0.00    -0.165 A 
ATOM     10  C   LIG    1        3.909  -7.954 -20.239  0.00  0.00    +0.012 A 
ATOM     11  S   LIG    1        2.758  -6.763 -20.879  0.00  0.00    +0.113 S 
ENDROOT
BRANCH   9  12
ATOM     12  N   LIG    1        5.792  -6.550 -19.448  0.00  0.00    +0.062 N 
ATOM     13  O   LIG    1        6.402  -6.023 -20.349  0.00  0.00    -0.160 OA
ATOM     14  O   LIG    1        5.702  -5.997 -18.376  0.00  0.00    -0.161 OA
ENDBRANCH   9  12
BRANCH   1  15
ATOM     15  C   LIG    1        0.191  -7.587 -22.025  0.00  0.00    +0.558 C 
ATOM     16  O   LIG    1       -0.819  -7.531 -21.350  0.00  0.00    -0.490 OA
BRANCH  15  18
ATOM     17  C   LIG    1       -0.504  -6.158 -23.784  0.00  0.00    +0.261 C 
ATOM     18  O   LIG    1        0.125  -7.367 -23.355  0.00  0.00    -0.348 OA
ENDBRANCH  15  18
ENDBRANCH   1  15
BRANCH   6  19
ATOM     19  O   LIG    1        5.828 -11.400 -19.083  0.00  0.00    -0.478 OA
ATOM     20  H   LIG    1        6.538 -11.253 -18.443  0.00  0.00    +0.378 HD
ENDBRANCH   6  19
TORSDOF 4
ENDMDL
MODEL 8
REMARK VINA RESULT:      -4.3      7.039      9.005
REMARK  Name = CHEMBL1089504
REMARK                            x       y       z     vdW  Elec       q    Type
REMARK                         _______ _______ _______ _____ _____    ______ ____
ROOT
ATOM      1  C   LIG    1       -1.724  -9.828 -20.772  0.00  0.00    -0.265 A 
ATOM      2  C   LIG    1       -0.816 -10.645 -21.377  0.00  0.00    +0.098 A 
ATOM      3 CL   LIG    1       -1.192 -12.319 -21.636  0.00  0.00    -0.035 Cl
ATOM      4  C   LIG    1        0.425 -10.128 -21.789  0.00  0.00    -0.216 A 
ATOM      5  C   LIG    1        1.491 -10.816 -22.429  0.00  0.00    +0.109 A 
ATOM      6  C   LIG    1        2.637 -10.165 -22.765  0.00  0.00    +0.018 A 
ATOM      7  C   LIG    1        2.809  -8.804 -22.496  0.00  0.00    +0.331 A 
ATOM      8  O   LIG    1        3.965  -8.177 -22.841  0.00  0.00    -0.622 OA
ATOM      9  C   LIG    1        1.793  -8.102 -21.873  0.00  0.00    -0.165 A 
ATOM     10  C   LIG    1        0.627  -8.753 -21.528  0.00  0.00    +0.012 A 
ATOM     11  S   LIG    1       -0.886  -8.252 -20.748  0.00  0.00    +0.113 S 
ENDROOT
BRANCH   9  12
ATOM     12  N   LIG    1        1.955  -6.660 -21.577  0.00  0.00    +0.062 N 
ATOM     13  O   LIG    1        2.395  -6.307 -20.509  0.00  0.00    -0.160 OA
ATOM     14  O   LIG    1        1.647  -5.835 -22.405  0.00  0.00    -0.161 OA
ENDBRANCH   9  12
BRANCH   1  15
ATOM     15  C   LIG    1       -3.059 -10.159 -20.271  0.00  0.00    +0.558 C 
ATOM     16  O   LIG    1       -3.945 -10.453 -21.050  0.00  0.00    -0.490 OA
BRANCH  15  18
ATOM     17  C   LIG    1       -3.536 -11.396 -18.307  0.00  0.00    +0.261 C 
ATOM     18  O   LIG    1       -3.307 -10.138 -18.945  0.00  0.00    -0.348 OA
ENDBRANCH  15  18
ENDBRANCH   1  15
BRANCH   6  19
ATOM     19  O   LIG    1        3.638 -10.854 -23.377  0.00  0.00    -0.478 OA
ATOM     20  H   LIG    1        3.514 -11.814 -23.374  0.00  0.00    +0.378 HD
ENDBRANCH   6  19
TORSDOF 4
ENDMDL
MODEL 9
REMARK VINA RESULT:      -4.3     19.079     21.458
REMARK  Name = CHEMBL1089504
REMARK                            x       y       z     vdW  Elec       q    Type
REMARK                         _______ _______ _______ _____ _____    ______ ____
ROOT
ATOM      1  C   LIG    1      -13.502 -10.143 -27.934  0.00  0.00    -0.265 A 
ATOM      2  C   LIG    1      -12.481 -10.228 -27.034  0.00  0.00    +0.098 A 
ATOM      3 CL   LIG    1      -11.729 -11.759 -26.717  0.00  0.00    -0.035 Cl
ATOM      4  C   LIG    1      -12.041  -9.073 -26.364  0.00  0.00    -0.216 A 
ATOM      5  C   LIG    1      -11.003  -8.962 -25.399  0.00  0.00    +0.109 A 
ATOM      6  C   LIG    1      -10.699  -7.761 -24.840  0.00  0.00    +0.018 A 
ATOM      7  C   LIG    1      -11.390  -6.596 -25.189  0.00  0.00    +0.331 A 
ATOM      8  O   LIG    1      -11.067  -5.408 -24.614  0.00  0.00    -0.622 OA
ATOM      9  C   LIG    1      -12.408  -6.666 -26.124  0.00  0.00    -0.165 A 
ATOM     10  C   LIG    1      -12.724  -7.880 -26.697  0.00  0.00    +0.012 A 
ATOM     11  S   LIG    1      -13.913  -8.406 -27.905  0.00  0.00    +0.113 S 
ENDROOT
BRANCH   9  12
ATOM     12  N   LIG    1      -13.154  -5.446 -26.507  0.00  0.00    +0.062 N 
ATOM     13  O   LIG    1      -12.698  -4.693 -27.335  0.00  0.00    -0.160 OA
ATOM     14  O   LIG    1      -14.220  -5.202 -25.990  0.00  0.00    -0.161 OA
ENDBRANCH   9  12
BRANCH   1  15
ATOM     15  C   LIG    1      -14.107 -11.210 -28.732  0.00  0.00    +0.558 C 
ATOM     16  O   LIG    1      -14.014 -11.190 -29.945  0.00  0.00    -0.490 OA
BRANCH  15  18
ATOM     17  C   LIG    1      -14.420 -13.548 -28.508  0.00  0.00    +0.261 C 
ATOM     18  O   LIG    1      -14.768 -12.217 -28.124  0.00  0.00    -0.348 OA
ENDBRANCH  15  18
ENDBRANCH   1  15
BRANCH   6  19
ATOM     19  O   LIG    1       -9.699  -7.690 -23.920  0.00  0.00    -0.478 OA
ATOM     20  H   LIG    1       -9.539  -6.798 -23.581  0.00  0.00    +0.378 HD
ENDBRANCH   6  19
TORSDOF 4
ENDMDL
