MODEL 1
REMARK VINA RESULT:      -8.0      0.000      0.000
REMARK  Name = CHEMBL1324
REMARK                            x       y       z     vdW  Elec       q    Type
REMARK                         _______ _______ _______ _____ _____    ______ ____
ROOT
ATOM      1  C   LIG    1       -3.558 -11.565 -19.146  0.00  0.00    -0.146 A 
ATOM      2  C   LIG    1       -4.209 -10.407 -18.707  0.00  0.00    +0.154 A 
ATOM      3  C   LIG    1       -4.865 -10.403 -17.496  0.00  0.00    -0.074 A 
ATOM      4  C   LIG    1       -4.883 -11.547 -16.708  0.00  0.00    +0.178 A 
ATOM      5  C   LIG    1       -4.236 -12.705 -17.141  0.00  0.00    +0.081 A 
ATOM      6  C   LIG    1       -3.581 -12.718 -18.356  0.00  0.00    +0.134 A 
ENDROOT
BRANCH   3   7
ATOM      7  N   LIG    1       -5.552  -9.177 -17.033  0.00  0.00    +0.035 N 
ATOM      8  O   LIG    1       -5.049  -8.094 -17.221  0.00  0.00    -0.128 OA
ATOM      9  O   LIG    1       -6.616  -9.257 -16.466  0.00  0.00    -0.158 OA
ENDBRANCH   3   7
BRANCH   1  10
ATOM     10  C   LIG    1       -2.856 -11.571 -20.443  0.00  0.00    +0.447 C 
ATOM     11  O   LIG    1       -2.837 -12.581 -21.119  0.00  0.00    -0.432 OA
BRANCH  10  16
ATOM     12  C   LIG    1       -0.205  -6.813 -22.302  0.00  0.00    +0.100 C 
ATOM     13  C   LIG    1       -0.899  -8.060 -21.816  0.00  0.00    -0.044 A 
ATOM     14  C   LIG    1       -1.902  -8.631 -22.577  0.00  0.00    +0.002 A 
ATOM     15  C   LIG    1       -2.543  -9.771 -22.138  0.00  0.00    +0.088 A 
ATOM     16  C   LIG    1       -2.175 -10.349 -20.920  0.00  0.00    -0.177 A 
ATOM     17  C   LIG    1       -1.161  -9.767 -20.157  0.00  0.00    +0.053 A 
ATOM     18  C   LIG    1       -0.526  -8.629 -20.611  0.00  0.00    +0.006 A 
ENDBRANCH  10  16
ENDBRANCH   1  10
BRANCH   4  19
ATOM     19  O   LIG    1       -5.531 -11.538 -15.516  0.00  0.00    -0.458 OA
ATOM     20  H   LIG    1       -5.823 -10.662 -15.233  0.00  0.00    +0.409 HD
ENDBRANCH   4  19
BRANCH   5  21
ATOM     21  O   LIG    1       -4.255 -13.823 -16.366  0.00  0.00    -0.469 OA
ATOM     22  H   LIG    1       -4.454 -13.653 -15.435  0.00  0.00    +0.400 HD
ENDBRANCH   5  21
TORSDOF 5
ENDMDL
MODEL 2
REMARK VINA RESULT:      -7.4      1.756      3.107
REMARK  Name = CHEMBL1324
REMARK                            x       y       z     vdW  Elec       q    Type
REMARK                         _______ _______ _______ _____ _____    ______ ____
ROOT
ATOM      1  C   LIG    1       -3.655 -10.649 -19.317  0.00  0.00    -0.146 A 
ATOM      2  C   LIG    1       -3.502 -11.986 -18.932  0.00  0.00    +0.154 A 
ATOM      3  C   LIG    1       -3.991 -12.413 -17.718  0.00  0.00    -0.074 A 
ATOM      4  C   LIG    1       -4.637 -11.520 -16.873  0.00  0.00    +0.178 A 
ATOM      5  C   LIG    1       -4.793 -10.187 -17.250  0.00  0.00    +0.081 A 
ATOM      6  C   LIG    1       -4.300  -9.749 -18.463  0.00  0.00    +0.134 A 
ENDROOT
BRANCH   3   7
ATOM      7  N   LIG    1       -3.829 -13.827 -17.313  0.00  0.00    +0.035 N 
ATOM      8  O   LIG    1       -3.692 -14.685 -18.154  0.00  0.00    -0.128 OA
ATOM      9  O   LIG    1       -3.833 -14.126 -16.142  0.00  0.00    -0.158 OA
ENDBRANCH   3   7
BRANCH   1  10
ATOM     10  C   LIG    1       -3.131 -10.190 -20.616  0.00  0.00    +0.447 C 
ATOM     11  O   LIG    1       -3.870 -10.122 -21.580  0.00  0.00    -0.432 OA
BRANCH  10  16
ATOM     12  C   LIG    1        2.408  -8.716 -21.131  0.00  0.00    +0.100 C 
ATOM     13  C   LIG    1        0.957  -9.103 -20.996  0.00  0.00    -0.044 A 
ATOM     14  C   LIG    1        0.533 -10.347 -21.427  0.00  0.00    +0.002 A 
ATOM     15  C   LIG    1       -0.793 -10.707 -21.307  0.00  0.00    +0.088 A 
ATOM     16  C   LIG    1       -1.709  -9.812 -20.749  0.00  0.00    -0.177 A 
ATOM     17  C   LIG    1       -1.273  -8.557 -20.315  0.00  0.00    +0.053 A 
ATOM     18  C   LIG    1        0.057  -8.213 -20.437  0.00  0.00    +0.006 A 
ENDBRANCH  10  16
ENDBRANCH   1  10
BRANCH   4  19
ATOM     19  O   LIG    1       -5.117 -11.946 -15.676  0.00  0.00    -0.458 OA
ATOM     20  H   LIG    1       -4.627 -12.687 -15.296  0.00  0.00    +0.409 HD
ENDBRANCH   4  19
BRANCH   5  21
ATOM     21  O   LIG    1       -5.427  -9.315 -16.420  0.00  0.00    -0.469 OA
ATOM     22  H   LIG    1       -6.190  -9.694 -15.960  0.00  0.00    +0.400 HD
ENDBRANCH   5  21
TORSDOF 5
ENDMDL
MODEL 3
REMARK VINA RESULT:      -7.1      2.647      4.192
REMARK  Name = CHEMBL1324
REMARK                            x       y       z     vdW  Elec       q    Type
REMARK                         _______ _______ _______ _____ _____    ______ ____
ROOT
ATOM      1  C   LIG    1       -3.844 -12.101 -19.121  0.00  0.00    -0.146 A 
ATOM      2  C   LIG    1       -4.374 -10.863 -18.744  0.00  0.00    +0.154 A 
ATOM      3  C   LIG    1       -4.845 -10.676 -17.463  0.00  0.00    -0.074 A 
ATOM      4  C   LIG    1       -4.796 -11.716 -16.543  0.00  0.00    +0.178 A 
ATOM      5  C   LIG    1       -4.268 -12.953 -16.913  0.00  0.00    +0.081 A 
ATOM      6  C   LIG    1       -3.799 -13.150 -18.197  0.00  0.00    +0.134 A 
ENDROOT
BRANCH   3   7
ATOM      7  N   LIG    1       -5.406  -9.366 -17.066  0.00  0.00    +0.035 N 
ATOM      8  O   LIG    1       -4.842  -8.345 -17.387  0.00  0.00    -0.128 OA
ATOM      9  O   LIG    1       -6.427  -9.314 -16.421  0.00  0.00    -0.158 OA
ENDBRANCH   3   7
BRANCH   1  10
ATOM     10  C   LIG    1       -3.340 -12.302 -20.492  0.00  0.00    +0.447 C 
ATOM     11  O   LIG    1       -2.322 -11.743 -20.853  0.00  0.00    -0.432 OA
BRANCH  10  16
ATOM     12  C   LIG    1       -6.181 -15.736 -24.132  0.00  0.00    +0.100 C 
ATOM     13  C   LIG    1       -5.437 -14.836 -23.178  0.00  0.00    -0.044 A 
ATOM     14  C   LIG    1       -5.870 -13.538 -22.977  0.00  0.00    +0.002 A 
ATOM     15  C   LIG    1       -5.194 -12.709 -22.106  0.00  0.00    +0.088 A 
ATOM     16  C   LIG    1       -4.070 -13.184 -21.427  0.00  0.00    -0.177 A 
ATOM     17  C   LIG    1       -3.639 -14.496 -21.634  0.00  0.00    +0.053 A 
ATOM     18  C   LIG    1       -4.328 -15.315 -22.505  0.00  0.00    +0.006 A 
ENDBRANCH  10  16
ENDBRANCH   1  10
BRANCH   4  19
ATOM     19  O   LIG    1       -5.262 -11.528 -15.282  0.00  0.00    -0.458 OA
ATOM     20  H   LIG    1       -5.682 -12.308 -14.897  0.00  0.00    +0.409 HD
ENDBRANCH   4  19
BRANCH   5  21
ATOM     21  O   LIG    1       -4.220 -13.969 -16.009  0.00  0.00    -0.469 OA
ATOM     22  H   LIG    1       -3.946 -14.817 -16.385  0.00  0.00    +0.400 HD
ENDBRANCH   5  21
TORSDOF 5
ENDMDL
MODEL 4
REMARK VINA RESULT:      -6.8      4.259      6.522
REMARK  Name = CHEMBL1324
REMARK                            x       y       z     vdW  Elec       q    Type
REMARK                         _______ _______ _______ _____ _____    ______ ____
ROOT
ATOM      1  C   LIG    1       -3.013 -14.607 -19.497  0.00  0.00    -0.146 A 
ATOM      2  C   LIG    1       -3.049 -13.359 -20.128  0.00  0.00    +0.154 A 
ATOM      3  C   LIG    1       -3.469 -12.247 -19.433  0.00  0.00    -0.074 A 
ATOM      4  C   LIG    1       -3.857 -12.361 -18.104  0.00  0.00    +0.178 A 
ATOM      5  C   LIG    1       -3.823 -13.602 -17.468  0.00  0.00    +0.081 A 
ATOM      6  C   LIG    1       -3.409 -14.722 -18.161  0.00  0.00    +0.134 A 
ENDROOT
BRANCH   3   7
ATOM      7  N   LIG    1       -3.507 -10.928 -20.102  0.00  0.00    +0.035 N 
ATOM      8  O   LIG    1       -2.873 -10.003 -19.652  0.00  0.00    -0.128 OA
ATOM      9  O   LIG    1       -4.172 -10.775 -21.100  0.00  0.00    -0.158 OA
ENDBRANCH   3   7
BRANCH   1  10
ATOM     10  C   LIG    1       -2.563 -15.798 -20.241  0.00  0.00    +0.447 C 
ATOM     11  O   LIG    1       -1.375 -16.016 -20.378  0.00  0.00    -0.432 OA
BRANCH  10  16
ATOM     12  C   LIG    1       -6.431 -19.414 -22.495  0.00  0.00    +0.100 C 
ATOM     13  C   LIG    1       -5.417 -18.467 -21.904  0.00  0.00    -0.044 A 
ATOM     14  C   LIG    1       -4.757 -18.806 -20.737  0.00  0.00    +0.002 A 
ATOM     15  C   LIG    1       -3.829 -17.943 -20.191  0.00  0.00    +0.088 A 
ATOM     16  C   LIG    1       -3.556 -16.726 -20.819  0.00  0.00    -0.177 A 
ATOM     17  C   LIG    1       -4.227 -16.391 -21.999  0.00  0.00    +0.053 A 
ATOM     18  C   LIG    1       -5.149 -17.265 -22.536  0.00  0.00    +0.006 A 
ENDBRANCH  10  16
ENDBRANCH   1  10
BRANCH   4  19
ATOM     19  O   LIG    1       -4.271 -11.262 -17.423  0.00  0.00    -0.458 OA
ATOM     20  H   LIG    1       -3.568 -10.810 -16.939  0.00  0.00    +0.409 HD
ENDBRANCH   4  19
BRANCH   5  21
ATOM     21  O   LIG    1       -4.203 -13.709 -16.167  0.00  0.00    -0.469 OA
ATOM     22  H   LIG    1       -5.156 -13.826 -16.043  0.00  0.00    +0.400 HD
ENDBRANCH   5  21
TORSDOF 5
ENDMDL
MODEL 5
REMARK VINA RESULT:      -6.4      1.762      2.649
REMARK  Name = CHEMBL1324
REMARK                            x       y       z     vdW  Elec       q    Type
REMARK                         _______ _______ _______ _____ _____    ______ ____
ROOT
ATOM      1  C   LIG    1       -3.373 -11.309 -19.637  0.00  0.00    -0.146 A 
ATOM      2  C   LIG    1       -4.009 -10.245 -18.988  0.00  0.00    +0.154 A 
ATOM      3  C   LIG    1       -4.628 -10.449 -17.775  0.00  0.00    -0.074 A 
ATOM      4  C   LIG    1       -4.623 -11.710 -17.192  0.00  0.00    +0.178 A 
ATOM      5  C   LIG    1       -3.990 -12.776 -17.833  0.00  0.00    +0.081 A 
ATOM      6  C   LIG    1       -3.373 -12.580 -19.053  0.00  0.00    +0.134 A 
ENDROOT
BRANCH   3   7
ATOM      7  N   LIG    1       -5.300  -9.323 -17.090  0.00  0.00    +0.035 N 
ATOM      8  O   LIG    1       -6.297  -9.521 -16.436  0.00  0.00    -0.128 OA
ATOM      9  O   LIG    1       -4.853  -8.204 -17.184  0.00  0.00    -0.158 OA
ENDBRANCH   3   7
BRANCH   1  10
ATOM     10  C   LIG    1       -2.710 -11.092 -20.936  0.00  0.00    +0.447 C 
ATOM     11  O   LIG    1       -1.537 -11.380 -21.075  0.00  0.00    -0.432 OA
BRANCH  10  16
ATOM     12  C   LIG    1       -5.673  -8.885 -25.348  0.00  0.00    +0.100 C 
ATOM     13  C   LIG    1       -4.897  -9.464 -24.192  0.00  0.00    -0.044 A 
ATOM     14  C   LIG    1       -5.455 -10.470 -23.424  0.00  0.00    +0.002 A 
ATOM     15  C   LIG    1       -4.750 -11.003 -22.364  0.00  0.00    +0.088 A 
ATOM     16  C   LIG    1       -3.471 -10.526 -22.068  0.00  0.00    -0.177 A 
ATOM     17  C   LIG    1       -2.915  -9.510 -22.850  0.00  0.00    +0.053 A 
ATOM     18  C   LIG    1       -3.629  -8.989 -23.909  0.00  0.00    +0.006 A 
ENDBRANCH  10  16
ENDBRANCH   1  10
BRANCH   4  19
ATOM     19  O   LIG    1       -5.235 -11.907 -15.996  0.00  0.00    -0.458 OA
ATOM     20  H   LIG    1       -4.777 -12.531 -15.418  0.00  0.00    +0.409 HD
ENDBRANCH   4  19
BRANCH   5  21
ATOM     21  O   LIG    1       -3.986 -14.009 -17.259  0.00  0.00    -0.469 OA
ATOM     22  H   LIG    1       -3.120 -14.440 -17.259  0.00  0.00    +0.400 HD
ENDBRANCH   5  21
TORSDOF 5
ENDMDL
MODEL 6
REMARK VINA RESULT:      -6.4      5.618      8.046
REMARK  Name = CHEMBL1324
REMARK                            x       y       z     vdW  Elec       q    Type
REMARK                         _______ _______ _______ _____ _____    ______ ____
ROOT
ATOM      1  C   LIG    1       -3.657 -16.878 -20.844  0.00  0.00    -0.146 A 
ATOM      2  C   LIG    1       -3.924 -18.113 -20.243  0.00  0.00    +0.154 A 
ATOM      3  C   LIG    1       -4.838 -18.973 -20.811  0.00  0.00    -0.074 A 
ATOM      4  C   LIG    1       -5.497 -18.617 -21.981  0.00  0.00    +0.178 A 
ATOM      5  C   LIG    1       -5.235 -17.388 -22.586  0.00  0.00    +0.081 A 
ATOM      6  C   LIG    1       -4.324 -16.518 -22.019  0.00  0.00    +0.134 A 
ENDROOT
BRANCH   3   7
ATOM      7  N   LIG    1       -5.118 -20.278 -20.173  0.00  0.00    +0.035 N 
ATOM      8  O   LIG    1       -6.248 -20.707 -20.147  0.00  0.00    -0.128 OA
ATOM      9  O   LIG    1       -4.219 -20.916 -19.678  0.00  0.00    -0.158 OA
ENDBRANCH   3   7
BRANCH   1  10
ATOM     10  C   LIG    1       -2.679 -15.957 -20.237  0.00  0.00    +0.447 C 
ATOM     11  O   LIG    1       -1.488 -16.133 -20.412  0.00  0.00    -0.432 OA
BRANCH  10  16
ATOM     12  C   LIG    1       -4.493 -11.526 -17.045  0.00  0.00    +0.100 C 
ATOM     13  C   LIG    1       -4.018 -12.688 -17.881  0.00  0.00    -0.044 A 
ATOM     14  C   LIG    1       -3.790 -13.916 -17.287  0.00  0.00    +0.002 A 
ATOM     15  C   LIG    1       -3.355 -14.982 -18.046  0.00  0.00    +0.088 A 
ATOM     16  C   LIG    1       -3.145 -14.820 -19.417  0.00  0.00    -0.177 A 
ATOM     17  C   LIG    1       -3.377 -13.576 -20.010  0.00  0.00    +0.053 A 
ATOM     18  C   LIG    1       -3.816 -12.520 -19.239  0.00  0.00    +0.006 A 
ENDBRANCH  10  16
ENDBRANCH   1  10
BRANCH   4  19
ATOM     19  O   LIG    1       -6.397 -19.467 -22.536  0.00  0.00    -0.458 OA
ATOM     20  H   LIG    1       -6.228 -19.667 -23.467  0.00  0.00    +0.409 HD
ENDBRANCH   4  19
BRANCH   5  21
ATOM     21  O   LIG    1       -5.881 -17.043 -23.732  0.00  0.00    -0.469 OA
ATOM     22  H   LIG    1       -6.066 -16.097 -23.810  0.00  0.00    +0.400 HD
ENDBRANCH   5  21
TORSDOF 5
ENDMDL
MODEL 7
REMARK VINA RESULT:      -6.4      1.617      3.042
REMARK  Name = CHEMBL1324
REMARK                            x       y       z     vdW  Elec       q    Type
REMARK                         _______ _______ _______ _____ _____    ______ ____
ROOT
ATOM      1  C   LIG    1       -3.265 -11.152 -20.249  0.00  0.00    -0.146 A 
ATOM      2  C   LIG    1       -3.325 -12.327 -19.492  0.00  0.00    +0.154 A 
ATOM      3  C   LIG    1       -3.780 -12.286 -18.192  0.00  0.00    -0.074 A 
ATOM      4  C   LIG    1       -4.180 -11.080 -17.631  0.00  0.00    +0.178 A 
ATOM      5  C   LIG    1       -4.123  -9.905 -18.381  0.00  0.00    +0.081 A 
ATOM      6  C   LIG    1       -3.662  -9.937 -19.682  0.00  0.00    +0.134 A 
ENDROOT
BRANCH   3   7
ATOM      7  N   LIG    1       -3.843 -13.529 -17.393  0.00  0.00    +0.035 N 
ATOM      8  O   LIG    1       -3.663 -14.600 -17.924  0.00  0.00    -0.128 OA
ATOM      9  O   LIG    1       -4.075 -13.475 -16.207  0.00  0.00    -0.158 OA
ENDBRANCH   3   7
BRANCH   1  10
ATOM     10  C   LIG    1       -2.778 -11.195 -21.640  0.00  0.00    +0.447 C 
ATOM     11  O   LIG    1       -2.620 -12.265 -22.196  0.00  0.00    -0.432 OA
BRANCH  10  16
ATOM     12  C   LIG    1       -1.628  -6.301 -24.440  0.00  0.00    +0.100 C 
ATOM     13  C   LIG    1       -1.930  -7.583 -23.707  0.00  0.00    -0.044 A 
ATOM     14  C   LIG    1       -3.080  -8.291 -24.003  0.00  0.00    +0.002 A 
ATOM     15  C   LIG    1       -3.363  -9.465 -23.336  0.00  0.00    +0.088 A 
ATOM     16  C   LIG    1       -2.483  -9.938 -22.359  0.00  0.00    -0.177 A 
ATOM     17  C   LIG    1       -1.322  -9.218 -22.066  0.00  0.00    +0.053 A 
ATOM     18  C   LIG    1       -1.051  -8.048 -22.745  0.00  0.00    +0.006 A 
ENDBRANCH  10  16
ENDBRANCH   1  10
BRANCH   4  19
ATOM     19  O   LIG    1       -4.627 -11.044 -16.350  0.00  0.00    -0.458 OA
ATOM     20  H   LIG    1       -5.085 -11.848 -16.070  0.00  0.00    +0.409 HD
ENDBRANCH   4  19
BRANCH   5  21
ATOM     21  O   LIG    1       -4.516  -8.726 -17.828  0.00  0.00    -0.469 OA
ATOM     22  H   LIG    1       -3.879  -8.353 -17.203  0.00  0.00    +0.400 HD
ENDBRANCH   5  21
TORSDOF 5
ENDMDL
MODEL 8
REMARK VINA RESULT:      -6.3      3.658      5.744
REMARK  Name = CHEMBL1324
REMARK                            x       y       z     vdW  Elec       q    Type
REMARK                         _______ _______ _______ _____ _____    ______ ____
ROOT
ATOM      1  C   LIG    1       -3.499 -13.630 -19.608  0.00  0.00    -0.146 A 
ATOM      2  C   LIG    1       -3.458 -12.243 -19.791  0.00  0.00    +0.154 A 
ATOM      3  C   LIG    1       -3.687 -11.402 -18.725  0.00  0.00    -0.074 A 
ATOM      4  C   LIG    1       -3.960 -11.926 -17.468  0.00  0.00    +0.178 A 
ATOM      5  C   LIG    1       -4.002 -13.307 -17.279  0.00  0.00    +0.081 A 
ATOM      6  C   LIG    1       -3.779 -14.158 -18.344  0.00  0.00    +0.134 A 
ENDROOT
BRANCH   3   7
ATOM      7  N   LIG    1       -3.643  -9.936 -18.919  0.00  0.00    +0.035 N 
ATOM      8  O   LIG    1       -4.468  -9.230 -18.387  0.00  0.00    -0.128 OA
ATOM      9  O   LIG    1       -2.783  -9.442 -19.611  0.00  0.00    -0.158 OA
ENDBRANCH   3   7
BRANCH   1  10
ATOM     10  C   LIG    1       -3.255 -14.532 -20.749  0.00  0.00    +0.447 C 
ATOM     11  O   LIG    1       -3.477 -14.153 -21.883  0.00  0.00    -0.432 OA
BRANCH  10  16
ATOM     12  C   LIG    1       -1.244 -19.846 -19.836  0.00  0.00    +0.100 C 
ATOM     13  C   LIG    1       -1.771 -18.454 -20.075  0.00  0.00    -0.044 A 
ATOM     14  C   LIG    1       -3.091 -18.272 -20.446  0.00  0.00    +0.002 A 
ATOM     15  C   LIG    1       -3.580 -17.001 -20.667  0.00  0.00    +0.088 A 
ATOM     16  C   LIG    1       -2.739 -15.897 -20.514  0.00  0.00    -0.177 A 
ATOM     17  C   LIG    1       -1.407 -16.088 -20.138  0.00  0.00    +0.053 A 
ATOM     18  C   LIG    1       -0.933 -17.365 -19.916  0.00  0.00    +0.006 A 
ENDBRANCH  10  16
ENDBRANCH   1  10
BRANCH   4  19
ATOM     19  O   LIG    1       -4.185 -11.092 -16.420  0.00  0.00    -0.458 OA
ATOM     20  H   LIG    1       -4.508 -10.218 -16.675  0.00  0.00    +0.409 HD
ENDBRANCH   4  19
BRANCH   5  21
ATOM     21  O   LIG    1       -4.268 -13.817 -16.047  0.00  0.00    -0.469 OA
ATOM     22  H   LIG    1       -3.535 -13.734 -15.420  0.00  0.00    +0.400 HD
ENDBRANCH   5  21
TORSDOF 5
ENDMDL
MODEL 9
REMARK VINA RESULT:      -6.1      4.196      6.805
REMARK  Name = CHEMBL1324
REMARK                            x       y       z     vdW  Elec       q    Type
REMARK                         _______ _______ _______ _____ _____    ______ ____
ROOT
ATOM      1  C   LIG    1       -2.955 -14.162 -20.524  0.00  0.00    -0.146 A 
ATOM      2  C   LIG    1       -3.328 -14.149 -19.176  0.00  0.00    +0.154 A 
ATOM      3  C   LIG    1       -3.724 -12.971 -18.582  0.00  0.00    -0.074 A 
ATOM      4  C   LIG    1       -3.754 -11.794 -19.319  0.00  0.00    +0.178 A 
ATOM      5  C   LIG    1       -3.383 -11.800 -20.664  0.00  0.00    +0.081 A 
ATOM      6  C   LIG    1       -2.979 -12.976 -21.264  0.00  0.00    +0.134 A 
ENDROOT
BRANCH   3   7
ATOM      7  N   LIG    1       -4.119 -12.959 -17.156  0.00  0.00    +0.035 N 
ATOM      8  O   LIG    1       -4.889 -12.121 -16.749  0.00  0.00    -0.128 OA
ATOM      9  O   LIG    1       -3.671 -13.787 -16.397  0.00  0.00    -0.158 OA
ENDBRANCH   3   7
BRANCH   1  10
ATOM     10  C   LIG    1       -2.530 -15.423 -21.160  0.00  0.00    +0.447 C 
ATOM     11  O   LIG    1       -1.407 -15.526 -21.616  0.00  0.00    -0.432 OA
BRANCH  10  16
ATOM     12  C   LIG    1       -6.184 -19.857 -21.488  0.00  0.00    +0.100 C 
ATOM     13  C   LIG    1       -5.226 -18.695 -21.402  0.00  0.00    -0.044 A 
ATOM     14  C   LIG    1       -4.331 -18.618 -20.351  0.00  0.00    +0.002 A 
ATOM     15  C   LIG    1       -3.452 -17.558 -20.265  0.00  0.00    +0.088 A 
ATOM     16  C   LIG    1       -3.468 -16.561 -21.244  0.00  0.00    -0.177 A 
ATOM     17  C   LIG    1       -4.375 -16.647 -22.303  0.00  0.00    +0.053 A 
ATOM     18  C   LIG    1       -5.245 -17.715 -22.378  0.00  0.00    +0.006 A 
ENDBRANCH  10  16
ENDBRANCH   1  10
BRANCH   4  19
ATOM     19  O   LIG    1       -4.144 -10.635 -18.730  0.00  0.00    -0.458 OA
ATOM     20  H   LIG    1       -5.097 -10.478 -18.763  0.00  0.00    +0.409 HD
ENDBRANCH   4  19
BRANCH   5  21
ATOM     21  O   LIG    1       -3.415 -10.646 -21.383  0.00  0.00    -0.469 OA
ATOM     22  H   LIG    1       -4.278 -10.449 -21.774  0.00  0.00    +0.400 HD
ENDBRANCH   5  21
TORSDOF 5
ENDMDL
