MODEL 1
REMARK VINA RESULT:      -6.5      0.000      0.000
REMARK  Name = CHEMBL1089537
REMARK                            x       y       z     vdW  Elec       q    Type
REMARK                         _______ _______ _______ _____ _____    ______ ____
ROOT
ATOM      1  C   LIG    1        6.138  -7.505 -18.967  0.00  0.00    -0.269 A 
ATOM      2  C   LIG    1        6.761  -6.482 -19.617  0.00  0.00    +0.101 A 
ATOM      3 CL   LIG    1        7.164  -6.638 -21.299  0.00  0.00    -0.034 Cl
ATOM      4  C   LIG    1        7.079  -5.300 -18.923  0.00  0.00    -0.216 A 
ATOM      5  C   LIG    1        7.722  -4.137 -19.423  0.00  0.00    +0.109 A 
ATOM      6  C   LIG    1        7.958  -3.070 -18.613  0.00  0.00    +0.018 A 
ATOM      7  C   LIG    1        7.579  -3.078 -17.266  0.00  0.00    +0.331 A 
ATOM      8  O   LIG    1        7.828  -1.999 -16.478  0.00  0.00    -0.621 OA
ATOM      9  C   LIG    1        6.950  -4.195 -16.745  0.00  0.00    -0.165 A 
ATOM     10  C   LIG    1        6.708  -5.281 -17.559  0.00  0.00    +0.012 A 
ATOM     11  S   LIG    1        5.945  -6.865 -17.313  0.00  0.00    +0.117 S 
ENDROOT
BRANCH   9  12
ATOM     12  N   LIG    1        6.542  -4.224 -15.322  0.00  0.00    +0.061 N 
ATOM     13  O   LIG    1        6.975  -5.080 -14.586  0.00  0.00    -0.160 OA
ATOM     14  O   LIG    1        5.777  -3.391 -14.896  0.00  0.00    -0.161 OA
ENDBRANCH   9  12
BRANCH   1  15
ATOM     15  C   LIG    1        5.723  -8.806 -19.498  0.00  0.00    +0.560 C 
ATOM     16  O   LIG    1        6.560  -9.634 -19.799  0.00  0.00    -0.478 OA
BRANCH  15  17
ATOM     17  O   LIG    1        4.412  -9.084 -19.652  0.00  0.00    -0.349 OA
BRANCH  17  18
ATOM     18  C   LIG    1        3.646  -8.176 -20.445  0.00  0.00    +0.480 C 
BRANCH  18  19
ATOM     19  O   LIG    1        2.295  -8.635 -20.527  0.00  0.00    -0.355 OA
BRANCH  19  20
ATOM     20  C   LIG    1        1.359  -7.721 -20.826  0.00  0.00    +0.462 C 
ATOM     21  O   LIG    1        1.586  -6.546 -20.660  0.00  0.00    -0.489 OA
BRANCH  20  23
ATOM     22  C   LIG    1       -0.968  -8.327 -20.216  0.00  0.00    +0.062 C 
ATOM     23  C   LIG    1        0.023  -8.161 -21.370  0.00  0.00    +0.023 C 
ATOM     24  C   LIG    1       -0.502  -7.105 -22.346  0.00  0.00    +0.058 C 
ENDBRANCH  20  23
ENDBRANCH  19  20
ENDBRANCH  18  19
ENDBRANCH  17  18
ENDBRANCH  15  17
ENDBRANCH   1  15
BRANCH   6  25
ATOM     25  O   LIG    1        8.577  -1.971 -19.124  0.00  0.00    -0.478 OA
ATOM     26  H   LIG    1        9.481  -1.844 -18.806  0.00  0.00    +0.378 HD
ENDBRANCH   6  25
TORSDOF 8
ENDMDL
MODEL 2
REMARK VINA RESULT:      -6.2     10.703     13.110
REMARK  Name = CHEMBL1089537
REMARK                            x       y       z     vdW  Elec       q    Type
REMARK                         _______ _______ _______ _____ _____    ______ ____
ROOT
ATOM      1  C   LIG    1       -2.529 -14.966 -20.800  0.00  0.00    -0.269 A 
ATOM      2  C   LIG    1       -3.046 -15.026 -19.541  0.00  0.00    +0.101 A 
ATOM      3 CL   LIG    1       -3.219 -16.559 -18.744  0.00  0.00    -0.034 Cl
ATOM      4  C   LIG    1       -3.439 -13.844 -18.888  0.00  0.00    -0.216 A 
ATOM      5  C   LIG    1       -3.994 -13.704 -17.588  0.00  0.00    +0.109 A 
ATOM      6  C   LIG    1       -4.324 -12.478 -17.101  0.00  0.00    +0.018 A 
ATOM      7  C   LIG    1       -4.131 -11.316 -17.855  0.00  0.00    +0.331 A 
ATOM      8  O   LIG    1       -4.470 -10.103 -17.345  0.00  0.00    -0.621 OA
ATOM      9  C   LIG    1       -3.593 -11.414 -19.127  0.00  0.00    -0.165 A 
ATOM     10  C   LIG    1       -3.256 -12.653 -19.628  0.00  0.00    +0.012 A 
ATOM     11  S   LIG    1       -2.553 -13.219 -21.157  0.00  0.00    +0.117 S 
ENDROOT
BRANCH   9  12
ATOM     12  N   LIG    1       -3.381 -10.197 -19.942  0.00  0.00    +0.061 N 
ATOM     13  O   LIG    1       -2.524  -9.402 -19.630  0.00  0.00    -0.160 OA
ATOM     14  O   LIG    1       -4.063  -9.998 -20.919  0.00  0.00    -0.161 OA
ENDBRANCH   9  12
BRANCH   1  15
ATOM     15  C   LIG    1       -2.063 -16.066 -21.649  0.00  0.00    +0.560 C 
ATOM     16  O   LIG    1       -1.081 -16.708 -21.328  0.00  0.00    -0.478 OA
BRANCH  15  17
ATOM     17  O   LIG    1       -2.723 -16.366 -22.787  0.00  0.00    -0.349 OA
BRANCH  17  18
ATOM     18  C   LIG    1       -4.149 -16.407 -22.718  0.00  0.00    +0.480 C 
BRANCH  18  19
ATOM     19  O   LIG    1       -4.553 -17.357 -21.730  0.00  0.00    -0.355 OA
BRANCH  19  20
ATOM     20  C   LIG    1       -5.364 -18.348 -22.134  0.00  0.00    +0.462 C 
ATOM     21  O   LIG    1       -6.189 -18.141 -22.992  0.00  0.00    -0.489 OA
BRANCH  20  23
ATOM     22  C   LIG    1       -4.909 -19.581 -20.031  0.00  0.00    +0.062 C 
ATOM     23  C   LIG    1       -5.245 -19.718 -21.517  0.00  0.00    +0.023 C 
ATOM     24  C   LIG    1       -6.572 -20.464 -21.674  0.00  0.00    +0.058 C 
ENDBRANCH  20  23
ENDBRANCH  19  20
ENDBRANCH  18  19
ENDBRANCH  17  18
ENDBRANCH  15  17
ENDBRANCH   1  15
BRANCH   6  25
ATOM     25  O   LIG    1       -4.854 -12.380 -15.851  0.00  0.00    -0.478 OA
ATOM     26  H   LIG    1       -4.315 -11.867 -15.234  0.00  0.00    +0.378 HD
ENDBRANCH   6  25
TORSDOF 8
ENDMDL
MODEL 3
REMARK VINA RESULT:      -5.9      1.762      2.797
REMARK  Name = CHEMBL1089537
REMARK                            x       y       z     vdW  Elec       q    Type
REMARK                         _______ _______ _______ _____ _____    ______ ____
ROOT
ATOM      1  C   LIG    1        6.455  -7.001 -20.332  0.00  0.00    -0.269 A 
ATOM      2  C   LIG    1        6.315  -7.137 -18.984  0.00  0.00    +0.101 A 
ATOM      3 CL   LIG    1        5.720  -8.626 -18.317  0.00  0.00    -0.034 Cl
ATOM      4  C   LIG    1        6.652  -6.069 -18.133  0.00  0.00    -0.216 A 
ATOM      5  C   LIG    1        6.574  -6.020 -16.716  0.00  0.00    +0.109 A 
ATOM      6  C   LIG    1        6.941  -4.900 -16.037  0.00  0.00    +0.018 A 
ATOM      7  C   LIG    1        7.406  -3.762 -16.704  0.00  0.00    +0.331 A 
ATOM      8  O   LIG    1        7.766  -2.655 -16.002  0.00  0.00    -0.621 OA
ATOM      9  C   LIG    1        7.495  -3.773 -18.085  0.00  0.00    -0.165 A 
ATOM     10  C   LIG    1        7.124  -4.904 -18.780  0.00  0.00    +0.012 A 
ATOM     11  S   LIG    1        7.087  -5.341 -20.501  0.00  0.00    +0.117 S 
ENDROOT
BRANCH   9  12
ATOM     12  N   LIG    1        7.983  -2.579 -18.810  0.00  0.00    +0.061 N 
ATOM     13  O   LIG    1        7.201  -1.737 -19.185  0.00  0.00    -0.160 OA
ATOM     14  O   LIG    1        9.165  -2.444 -19.025  0.00  0.00    -0.161 OA
ENDBRANCH   9  12
BRANCH   1  15
ATOM     15  C   LIG    1        6.165  -7.979 -21.383  0.00  0.00    +0.560 C 
ATOM     16  O   LIG    1        6.980  -8.839 -21.656  0.00  0.00    -0.478 OA
BRANCH  15  17
ATOM     17  O   LIG    1        4.992  -7.926 -22.049  0.00  0.00    -0.349 OA
BRANCH  17  18
ATOM     18  C   LIG    1        3.960  -8.814 -21.618  0.00  0.00    +0.480 C 
BRANCH  18  19
ATOM     19  O   LIG    1        3.234  -8.216 -20.542  0.00  0.00    -0.355 OA
BRANCH  19  20
ATOM     20  C   LIG    1        2.148  -7.497 -20.866  0.00  0.00    +0.462 C 
ATOM     21  O   LIG    1        2.110  -6.314 -20.621  0.00  0.00    -0.489 OA
BRANCH  20  23
ATOM     22  C   LIG    1        0.260  -9.070 -20.529  0.00  0.00    +0.062 C 
ATOM     23  C   LIG    1        0.974  -8.166 -21.536  0.00  0.00    +0.023 C 
ATOM     24  C   LIG    1        0.002  -7.098 -22.043  0.00  0.00    +0.058 C 
ENDBRANCH  20  23
ENDBRANCH  19  20
ENDBRANCH  18  19
ENDBRANCH  17  18
ENDBRANCH  15  17
ENDBRANCH   1  15
BRANCH   6  25
ATOM     25  O   LIG    1        6.854  -4.887 -14.678  0.00  0.00    -0.478 OA
ATOM     26  H   LIG    1        5.999  -5.180 -14.336  0.00  0.00    +0.378 HD
ENDBRANCH   6  25
TORSDOF 8
ENDMDL
MODEL 4
REMARK VINA RESULT:      -5.6     10.693     13.055
REMARK  Name = CHEMBL1089537
REMARK                            x       y       z     vdW  Elec       q    Type
REMARK                         _______ _______ _______ _____ _____    ______ ____
ROOT
ATOM      1  C   LIG    1       -2.487 -15.025 -21.194  0.00  0.00    -0.269 A 
ATOM      2  C   LIG    1       -2.961 -15.182 -19.927  0.00  0.00    +0.101 A 
ATOM      3 CL   LIG    1       -3.118 -16.772 -19.247  0.00  0.00    -0.034 Cl
ATOM      4  C   LIG    1       -3.324 -14.053 -19.170  0.00  0.00    -0.216 A 
ATOM      5  C   LIG    1       -3.834 -14.014 -17.845  0.00  0.00    +0.109 A 
ATOM      6  C   LIG    1       -4.140 -12.829 -17.252  0.00  0.00    +0.018 A 
ATOM      7  C   LIG    1       -3.964 -11.612 -17.919  0.00  0.00    +0.331 A 
ATOM      8  O   LIG    1       -4.279 -10.441 -17.304  0.00  0.00    -0.621 OA
ATOM      9  C   LIG    1       -3.470 -11.611 -19.212  0.00  0.00    -0.165 A 
ATOM     10  C   LIG    1       -3.158 -12.808 -19.820  0.00  0.00    +0.012 A 
ATOM     11  S   LIG    1       -2.511 -13.255 -21.412  0.00  0.00    +0.117 S 
ENDROOT
BRANCH   9  12
ATOM     12  N   LIG    1       -3.277 -10.335 -19.935  0.00  0.00    +0.061 N 
ATOM     13  O   LIG    1       -2.392  -9.580 -19.605  0.00  0.00    -0.160 OA
ATOM     14  O   LIG    1       -4.003 -10.047 -20.858  0.00  0.00    -0.161 OA
ENDBRANCH   9  12
BRANCH   1  15
ATOM     15  C   LIG    1       -2.056 -16.056 -22.142  0.00  0.00    +0.560 C 
ATOM     16  O   LIG    1       -2.820 -16.450 -23.001  0.00  0.00    -0.478 OA
BRANCH  15  17
ATOM     17  O   LIG    1       -0.811 -16.570 -22.060  0.00  0.00    -0.349 OA
BRANCH  17  18
ATOM     18  C   LIG    1       -0.607 -17.868 -22.618  0.00  0.00    +0.480 C 
BRANCH  18  19
ATOM     19  O   LIG    1       -0.460 -18.824 -21.566  0.00  0.00    -0.355 OA
BRANCH  19  20
ATOM     20  C   LIG    1       -1.449 -19.718 -21.414  0.00  0.00    +0.462 C 
ATOM     21  O   LIG    1       -2.365 -19.746 -22.201  0.00  0.00    -0.489 OA
BRANCH  20  23
ATOM     22  C   LIG    1       -0.593 -20.093 -19.116  0.00  0.00    +0.062 C 
ATOM     23  C   LIG    1       -1.417 -20.688 -20.260  0.00  0.00    +0.023 C 
ATOM     24  C   LIG    1       -2.845 -20.951 -19.776  0.00  0.00    +0.058 C 
ENDBRANCH  20  23
ENDBRANCH  19  20
ENDBRANCH  18  19
ENDBRANCH  17  18
ENDBRANCH  15  17
ENDBRANCH   1  15
BRANCH   6  25
ATOM     25  O   LIG    1       -4.627 -12.827 -15.981  0.00  0.00    -0.478 OA
ATOM     26  H   LIG    1       -5.244 -12.106 -15.797  0.00  0.00    +0.378 HD
ENDBRANCH   6  25
TORSDOF 8
ENDMDL
MODEL 5
REMARK VINA RESULT:      -5.5      5.858     10.651
REMARK  Name = CHEMBL1089537
REMARK                            x       y       z     vdW  Elec       q    Type
REMARK                         _______ _______ _______ _____ _____    ______ ____
ROOT
ATOM      1  C   LIG    1       -0.974 -10.138 -21.849  0.00  0.00    -0.269 A 
ATOM      2  C   LIG    1       -1.476  -9.704 -20.660  0.00  0.00    +0.101 A 
ATOM      3 CL   LIG    1       -1.080  -8.117 -20.076  0.00  0.00    -0.034 Cl
ATOM      4  C   LIG    1       -2.315 -10.544 -19.905  0.00  0.00    -0.216 A 
ATOM      5  C   LIG    1       -2.928 -10.273 -18.653  0.00  0.00    +0.109 A 
ATOM      6  C   LIG    1       -3.717 -11.202 -18.049  0.00  0.00    +0.018 A 
ATOM      7  C   LIG    1       -3.954 -12.450 -18.635  0.00  0.00    +0.331 A 
ATOM      8  O   LIG    1       -4.746 -13.361 -18.010  0.00  0.00    -0.621 OA
ATOM      9  C   LIG    1       -3.372 -12.749 -19.854  0.00  0.00    -0.165 A 
ATOM     10  C   LIG    1       -2.570 -11.814 -20.472  0.00  0.00    +0.012 A 
ATOM     11  S   LIG    1       -1.662 -11.777 -21.997  0.00  0.00    +0.117 S 
ENDROOT
BRANCH   9  12
ATOM     12  N   LIG    1       -3.608 -14.064 -20.490  0.00  0.00    +0.061 N 
ATOM     13  O   LIG    1       -4.396 -14.162 -21.403  0.00  0.00    -0.160 OA
ATOM     14  O   LIG    1       -3.014 -15.041 -20.098  0.00  0.00    -0.161 OA
ENDBRANCH   9  12
BRANCH   1  15
ATOM     15  C   LIG    1       -0.093  -9.429 -22.781  0.00  0.00    +0.560 C 
ATOM     16  O   LIG    1       -0.557  -8.623 -23.563  0.00  0.00    -0.478 OA
BRANCH  15  17
ATOM     17  O   LIG    1        1.235  -9.673 -22.771  0.00  0.00    -0.349 OA
BRANCH  17  18
ATOM     18  C   LIG    1        1.981  -9.154 -21.670  0.00  0.00    +0.480 C 
BRANCH  18  19
ATOM     19  O   LIG    1        2.660  -7.963 -22.072  0.00  0.00    -0.355 OA
BRANCH  19  20
ATOM     20  C   LIG    1        2.913  -7.054 -21.116  0.00  0.00    +0.462 C 
ATOM     21  O   LIG    1        2.002  -6.454 -20.596  0.00  0.00    -0.489 OA
BRANCH  20  23
ATOM     22  C   LIG    1        4.708  -7.712 -19.536  0.00  0.00    +0.062 C 
ATOM     23  C   LIG    1        4.334  -6.782 -20.692  0.00  0.00    +0.023 C 
ATOM     24  C   LIG    1        5.275  -7.032 -21.873  0.00  0.00    +0.058 C 
ENDBRANCH  20  23
ENDBRANCH  19  20
ENDBRANCH  18  19
ENDBRANCH  17  18
ENDBRANCH  15  17
ENDBRANCH   1  15
BRANCH   6  25
ATOM     25  O   LIG    1       -4.290 -10.909 -16.850  0.00  0.00    -0.478 OA
ATOM     26  H   LIG    1       -5.215 -10.637 -16.911  0.00  0.00    +0.378 HD
ENDBRANCH   6  25
TORSDOF 8
ENDMDL
MODEL 6
REMARK VINA RESULT:      -5.5     15.260     18.795
REMARK  Name = CHEMBL1089537
REMARK                            x       y       z     vdW  Elec       q    Type
REMARK                         _______ _______ _______ _____ _____    ______ ____
ROOT
ATOM      1  C   LIG    1      -10.838  -7.523 -25.429  0.00  0.00    -0.269 A 
ATOM      2  C   LIG    1      -10.118  -8.629 -25.091  0.00  0.00    +0.101 A 
ATOM      3 CL   LIG    1       -8.703  -8.476 -24.097  0.00  0.00    -0.034 Cl
ATOM      4  C   LIG    1      -10.524  -9.896 -25.550  0.00  0.00    -0.216 A 
ATOM      5  C   LIG    1       -9.909 -11.153 -25.307  0.00  0.00    +0.109 A 
ATOM      6  C   LIG    1      -10.431 -12.295 -25.829  0.00  0.00    +0.018 A 
ATOM      7  C   LIG    1      -11.585 -12.275 -26.619  0.00  0.00    +0.331 A 
ATOM      8  O   LIG    1      -12.087 -13.431 -27.130  0.00  0.00    -0.621 OA
ATOM      9  C   LIG    1      -12.211 -11.068 -26.878  0.00  0.00    -0.165 A 
ATOM     10  C   LIG    1      -11.688  -9.906 -26.352  0.00  0.00    +0.012 A 
ATOM     11  S   LIG    1      -12.158  -8.195 -26.423  0.00  0.00    +0.117 S 
ENDROOT
BRANCH   9  12
ATOM     12  N   LIG    1      -13.432 -11.025 -27.712  0.00  0.00    +0.061 N 
ATOM     13  O   LIG    1      -13.374 -10.617 -28.849  0.00  0.00    -0.160 OA
ATOM     14  O   LIG    1      -14.488 -11.399 -27.258  0.00  0.00    -0.161 OA
ENDBRANCH   9  12
BRANCH   1  15
ATOM     15  C   LIG    1      -10.592  -6.126 -25.061  0.00  0.00    +0.560 C 
ATOM     16  O   LIG    1      -10.468  -5.282 -25.927  0.00  0.00    -0.478 OA
BRANCH  15  17
ATOM     17  O   LIG    1      -10.502  -5.777 -23.760  0.00  0.00    -0.349 OA
BRANCH  17  18
ATOM     18  C   LIG    1       -9.296  -5.135 -23.344  0.00  0.00    +0.480 C 
BRANCH  18  19
ATOM     19  O   LIG    1       -9.568  -4.289 -22.224  0.00  0.00    -0.355 OA
BRANCH  19  20
ATOM     20  C   LIG    1       -9.435  -4.832 -21.004  0.00  0.00    +0.462 C 
ATOM     21  O   LIG    1      -10.388  -5.342 -20.462  0.00  0.00    -0.489 OA
BRANCH  20  23
ATOM     22  C   LIG    1       -7.440  -3.441 -20.519  0.00  0.00    +0.062 C 
ATOM     23  C   LIG    1       -8.098  -4.807 -20.310  0.00  0.00    +0.023 C 
ATOM     24  C   LIG    1       -8.297  -5.054 -18.812  0.00  0.00    +0.058 C 
ENDBRANCH  20  23
ENDBRANCH  19  20
ENDBRANCH  18  19
ENDBRANCH  17  18
ENDBRANCH  15  17
ENDBRANCH   1  15
BRANCH   6  25
ATOM     25  O   LIG    1       -9.817 -13.483 -25.576  0.00  0.00    -0.478 OA
ATOM     26  H   LIG    1       -9.748 -14.062 -26.348  0.00  0.00    +0.378 HD
ENDBRANCH   6  25
TORSDOF 8
ENDMDL
MODEL 7
REMARK VINA RESULT:      -5.3     10.728     12.637
REMARK  Name = CHEMBL1089537
REMARK                            x       y       z     vdW  Elec       q    Type
REMARK                         _______ _______ _______ _____ _____    ______ ____
ROOT
ATOM      1  C   LIG    1       -2.521 -14.961 -21.020  0.00  0.00    -0.269 A 
ATOM      2  C   LIG    1       -2.996 -15.083 -19.749  0.00  0.00    +0.101 A 
ATOM      3 CL   LIG    1       -3.126 -16.651 -19.016  0.00  0.00    -0.034 Cl
ATOM      4  C   LIG    1       -3.381 -13.936 -19.032  0.00  0.00    -0.216 A 
ATOM      5  C   LIG    1       -3.895 -13.861 -17.711  0.00  0.00    +0.109 A 
ATOM      6  C   LIG    1       -4.224 -12.662 -17.159  0.00  0.00    +0.018 A 
ATOM      7  C   LIG    1       -4.068 -11.465 -17.867  0.00  0.00    +0.331 A 
ATOM      8  O   LIG    1       -4.404 -10.280 -17.293  0.00  0.00    -0.621 OA
ATOM      9  C   LIG    1       -3.570 -11.500 -19.158  0.00  0.00    -0.165 A 
ATOM     10  C   LIG    1       -3.235 -12.711 -19.724  0.00  0.00    +0.012 A 
ATOM     11  S   LIG    1       -2.575 -13.200 -21.299  0.00  0.00    +0.117 S 
ENDROOT
BRANCH   9  12
ATOM     12  N   LIG    1       -3.398 -10.246 -19.924  0.00  0.00    +0.061 N 
ATOM     13  O   LIG    1       -2.560  -9.441 -19.587  0.00  0.00    -0.160 OA
ATOM     14  O   LIG    1       -4.094 -10.025 -20.887  0.00  0.00    -0.161 OA
ENDBRANCH   9  12
BRANCH   1  15
ATOM     15  C   LIG    1       -2.069 -16.016 -21.931  0.00  0.00    +0.560 C 
ATOM     16  O   LIG    1       -0.945 -15.982 -22.392  0.00  0.00    -0.478 OA
BRANCH  15  17
ATOM     17  O   LIG    1       -2.902 -17.026 -22.259  0.00  0.00    -0.349 OA
BRANCH  17  18
ATOM     18  C   LIG    1       -4.270 -16.689 -22.491  0.00  0.00    +0.480 C 
BRANCH  18  19
ATOM     19  O   LIG    1       -4.372 -15.897 -23.676  0.00  0.00    -0.355 OA
BRANCH  19  20
ATOM     20  C   LIG    1       -5.409 -15.048 -23.753  0.00  0.00    +0.462 C 
ATOM     21  O   LIG    1       -5.512 -14.145 -22.957  0.00  0.00    -0.489 OA
BRANCH  20  23
ATOM     22  C   LIG    1       -5.965 -16.266 -25.841  0.00  0.00    +0.062 C 
ATOM     23  C   LIG    1       -6.447 -15.221 -24.833  0.00  0.00    +0.023 C 
ATOM     24  C   LIG    1       -7.763 -15.686 -24.205  0.00  0.00    +0.058 C 
ENDBRANCH  20  23
ENDBRANCH  19  20
ENDBRANCH  18  19
ENDBRANCH  17  18
ENDBRANCH  15  17
ENDBRANCH   1  15
BRANCH   6  25
ATOM     25  O   LIG    1       -4.714 -12.626 -15.890  0.00  0.00    -0.478 OA
ATOM     26  H   LIG    1       -5.212 -13.415 -15.638  0.00  0.00    +0.378 HD
ENDBRANCH   6  25
TORSDOF 8
ENDMDL
MODEL 8
REMARK VINA RESULT:      -5.3      9.889     12.209
REMARK  Name = CHEMBL1089537
REMARK                            x       y       z     vdW  Elec       q    Type
REMARK                         _______ _______ _______ _____ _____    ______ ____
ROOT
ATOM      1  C   LIG    1       -2.641 -15.098 -21.619  0.00  0.00    -0.269 A 
ATOM      2  C   LIG    1       -3.025 -15.356 -20.337  0.00  0.00    +0.101 A 
ATOM      3 CL   LIG    1       -3.182 -16.996 -19.790  0.00  0.00    -0.034 Cl
ATOM      4  C   LIG    1       -3.294 -14.291 -19.458  0.00  0.00    -0.216 A 
ATOM      5  C   LIG    1       -3.703 -14.359 -18.100  0.00  0.00    +0.109 A 
ATOM      6  C   LIG    1       -3.926 -13.224 -17.383  0.00  0.00    +0.018 A 
ATOM      7  C   LIG    1       -3.761 -11.957 -17.952  0.00  0.00    +0.331 A 
ATOM      8  O   LIG    1       -3.991 -10.839 -17.214  0.00  0.00    -0.621 OA
ATOM      9  C   LIG    1       -3.364 -11.853 -19.274  0.00  0.00    -0.165 A 
ATOM     10  C   LIG    1       -3.137 -12.997 -20.007  0.00  0.00    +0.012 A 
ATOM     11  S   LIG    1       -2.624 -13.315 -21.677  0.00  0.00    +0.117 S 
ENDROOT
BRANCH   9  12
ATOM     12  N   LIG    1       -3.184 -10.522 -19.895  0.00  0.00    +0.061 N 
ATOM     13  O   LIG    1       -2.239  -9.833 -19.586  0.00  0.00    -0.160 OA
ATOM     14  O   LIG    1       -3.981 -10.123 -20.711  0.00  0.00    -0.161 OA
ENDBRANCH   9  12
BRANCH   1  15
ATOM     15  C   LIG    1       -2.315 -16.050 -22.683  0.00  0.00    +0.560 C 
ATOM     16  O   LIG    1       -3.203 -16.543 -23.351  0.00  0.00    -0.478 OA
BRANCH  15  17
ATOM     17  O   LIG    1       -1.029 -16.381 -22.922  0.00  0.00    -0.349 OA
BRANCH  17  18
ATOM     18  C   LIG    1       -0.462 -17.408 -22.108  0.00  0.00    +0.480 C 
BRANCH  18  19
ATOM     19  O   LIG    1        0.886 -17.067 -21.777  0.00  0.00    -0.355 OA
BRANCH  19  20
ATOM     20  C   LIG    1        1.087 -15.868 -21.209  0.00  0.00    +0.462 C 
ATOM     21  O   LIG    1        0.576 -15.609 -20.145  0.00  0.00    -0.489 OA
BRANCH  20  23
ATOM     22  C   LIG    1        1.159 -13.548 -22.081  0.00  0.00    +0.062 C 
ATOM     23  C   LIG    1        1.952 -14.843 -21.897  0.00  0.00    +0.023 C 
ATOM     24  C   LIG    1        3.192 -14.566 -21.043  0.00  0.00    +0.058 C 
ENDBRANCH  20  23
ENDBRANCH  19  20
ENDBRANCH  18  19
ENDBRANCH  17  18
ENDBRANCH  15  17
ENDBRANCH   1  15
BRANCH   6  25
ATOM     25  O   LIG    1       -4.317 -13.325 -16.083  0.00  0.00    -0.478 OA
ATOM     26  H   LIG    1       -3.781 -12.805 -15.470  0.00  0.00    +0.378 HD
ENDBRANCH   6  25
TORSDOF 8
ENDMDL
MODEL 9
REMARK VINA RESULT:      -5.3      7.254     11.028
REMARK  Name = CHEMBL1089537
REMARK                            x       y       z     vdW  Elec       q    Type
REMARK                         _______ _______ _______ _____ _____    ______ ____
ROOT
ATOM      1  C   LIG    1       -2.791 -11.086 -21.344  0.00  0.00    -0.269 A 
ATOM      2  C   LIG    1       -2.806 -12.214 -20.580  0.00  0.00    +0.101 A 
ATOM      3 CL   LIG    1       -2.073 -13.673 -21.170  0.00  0.00    -0.034 Cl
ATOM      4  C   LIG    1       -3.417 -12.195 -19.313  0.00  0.00    -0.216 A 
ATOM      5  C   LIG    1       -3.533 -13.259 -18.381  0.00  0.00    +0.109 A 
ATOM      6  C   LIG    1       -4.161 -13.074 -17.189  0.00  0.00    +0.018 A 
ATOM      7  C   LIG    1       -4.712 -11.837 -16.838  0.00  0.00    +0.331 A 
ATOM      8  O   LIG    1       -5.336 -11.679 -15.640  0.00  0.00    -0.621 OA
ATOM      9  C   LIG    1       -4.618 -10.777 -17.722  0.00  0.00    -0.165 A 
ATOM     10  C   LIG    1       -3.983 -10.956 -18.933  0.00  0.00    +0.012 A 
ATOM     11  S   LIG    1       -3.639  -9.899 -20.317  0.00  0.00    +0.117 S 
ENDROOT
BRANCH   9  12
ATOM     12  N   LIG    1       -5.194  -9.460 -17.371  0.00  0.00    +0.061 N 
ATOM     13  O   LIG    1       -4.560  -8.450 -17.568  0.00  0.00    -0.160 OA
ATOM     14  O   LIG    1       -6.300  -9.394 -16.887  0.00  0.00    -0.161 OA
ENDBRANCH   9  12
BRANCH   1  15
ATOM     15  C   LIG    1       -2.213 -10.893 -22.677  0.00  0.00    +0.560 C 
ATOM     16  O   LIG    1       -2.582 -11.585 -23.605  0.00  0.00    -0.478 OA
BRANCH  15  17
ATOM     17  O   LIG    1       -1.270  -9.948 -22.873  0.00  0.00    -0.349 OA
BRANCH  17  18
ATOM     18  C   LIG    1       -0.138 -10.315 -23.661  0.00  0.00    +0.480 C 
BRANCH  18  19
ATOM     19  O   LIG    1        1.017 -10.409 -22.824  0.00  0.00    -0.355 OA
BRANCH  19  20
ATOM     20  C   LIG    1        1.642  -9.261 -22.519  0.00  0.00    +0.462 C 
ATOM     21  O   LIG    1        2.242  -8.653 -23.374  0.00  0.00    -0.489 OA
BRANCH  20  23
ATOM     22  C   LIG    1        2.747  -9.333 -20.300  0.00  0.00    +0.062 C 
ATOM     23  C   LIG    1        1.597  -8.730 -21.109  0.00  0.00    +0.023 C 
ATOM     24  C   LIG    1        1.734  -7.206 -21.134  0.00  0.00    +0.058 C 
ENDBRANCH  20  23
ENDBRANCH  19  20
ENDBRANCH  18  19
ENDBRANCH  17  18
ENDBRANCH  15  17
ENDBRANCH   1  15
BRANCH   6  25
ATOM     25  O   LIG    1       -4.255 -14.116 -16.318  0.00  0.00    -0.478 OA
ATOM     26  H   LIG    1       -5.105 -14.577 -16.346  0.00  0.00    +0.378 HD
ENDBRANCH   6  25
TORSDOF 8
ENDMDL
