MODEL 1
REMARK VINA RESULT:      -9.3      0.000      0.000
REMARK  Name = CHEMBL63052
REMARK                            x       y       z     vdW  Elec       q    Type
REMARK                         _______ _______ _______ _____ _____    ______ ____
ROOT
ATOM      1  C   LIG    1       -8.908  -6.431 -18.050  0.00  0.00    +0.014 C 
ENDROOT
BRANCH   1   2
ATOM      2  C   LIG    1       -7.447  -6.448 -17.594  0.00  0.00    +0.274 C 
BRANCH   2   4
ATOM      3  C   LIG    1       -5.766  -8.210 -17.514  0.00  0.00    +0.561 C 
ATOM      4  N   LIG    1       -7.041  -7.826 -17.307  0.00  0.00    -0.727 N 
ATOM      5  H   LIG    1       -7.690  -8.462 -16.968  0.00  0.00    +0.401 HD
ATOM      6  O   LIG    1       -4.952  -7.412 -17.939  0.00  0.00    -0.528 OA
BRANCH   3  12
ATOM      7  C   LIG    1       -4.600 -10.314 -18.154  0.00  0.00    +0.056 A 
ATOM      8  C   LIG    1       -4.218 -11.610 -17.881  0.00  0.00    +0.005 A 
ATOM      9  C   LIG    1       -4.584 -12.206 -16.682  0.00  0.00    +0.110 A 
ATOM     10  C   LIG    1       -5.338 -11.497 -15.749  0.00  0.00    +0.075 A 
ATOM     11  C   LIG    1       -5.724 -10.198 -16.016  0.00  0.00    +0.080 A 
ATOM     12  C   LIG    1       -5.357  -9.598 -17.223  0.00  0.00    -0.131 A 
BRANCH   9  13
ATOM     13  O   LIG    1       -4.206 -13.484 -16.418  0.00  0.00    -0.486 OA
ATOM     14  H   LIG    1       -4.781 -13.941 -15.789  0.00  0.00    +0.394 HD
ENDBRANCH   9  13
BRANCH  10  15
ATOM     15  O   LIG    1       -5.696 -12.085 -14.575  0.00  0.00    -0.483 OA
ATOM     16  H   LIG    1       -5.003 -12.069 -13.901  0.00  0.00    +0.391 HD
ENDBRANCH  10  15
ENDBRANCH   3  12
ENDBRANCH   2   4
ENDBRANCH   1   2
BRANCH   1  17
ATOM     17  C   LIG    1       -9.086  -5.384 -19.152  0.00  0.00    +0.274 C 
BRANCH  17  18
ATOM     18  N   LIG    1       -8.378  -4.157 -18.777  0.00  0.00    -0.727 N 
ATOM     19  H   LIG    1       -8.423  -3.830 -17.865  0.00  0.00    +0.401 HD
ATOM     20  C   LIG    1       -7.665  -3.482 -19.700  0.00  0.00    +0.561 C 
ATOM     21  O   LIG    1       -7.609  -3.892 -20.844  0.00  0.00    -0.528 OA
BRANCH  20  22
ATOM     22  C   LIG    1       -6.952  -2.246 -19.323  0.00  0.00    -0.131 A 
ATOM     23  C   LIG    1       -5.659  -2.012 -19.798  0.00  0.00    +0.056 A 
ATOM     24  C   LIG    1       -4.994  -0.858 -19.446  0.00  0.00    +0.005 A 
ATOM     25  C   LIG    1       -5.606   0.075 -18.619  0.00  0.00    +0.110 A 
ATOM     26  C   LIG    1       -6.896  -0.153 -18.141  0.00  0.00    +0.075 A 
ATOM     27  C   LIG    1       -7.570  -1.305 -18.495  0.00  0.00    +0.080 A 
BRANCH  25  28
ATOM     28  O   LIG    1       -4.946   1.211 -18.275  0.00  0.00    -0.486 OA
ATOM     29  H   LIG    1       -4.347   1.105 -17.523  0.00  0.00    +0.394 HD
ENDBRANCH  25  28
BRANCH  26  30
ATOM     30  O   LIG    1       -7.492   0.763 -17.331  0.00  0.00    -0.483 OA
ATOM     31  H   LIG    1       -6.889   1.437 -16.989  0.00  0.00    +0.391 HD
ENDBRANCH  26  30
ENDBRANCH  20  22
ENDBRANCH  17  18
ENDBRANCH   1  17
TORSDOF 10
ENDMDL
MODEL 2
REMARK VINA RESULT:      -9.1      0.274      9.492
REMARK  Name = CHEMBL63052
REMARK                            x       y       z     vdW  Elec       q    Type
REMARK                         _______ _______ _______ _____ _____    ______ ____
ROOT
ATOM      1  C   LIG    1       -8.136  -6.504 -18.864  0.00  0.00    +0.014 C 
ENDROOT
BRANCH   1   2
ATOM      2  C   LIG    1       -9.088  -5.311 -18.970  0.00  0.00    +0.274 C 
BRANCH   2   4
ATOM      3  C   LIG    1       -7.656  -3.432 -19.567  0.00  0.00    +0.561 C 
ATOM      4  N   LIG    1       -8.371  -4.081 -18.627  0.00  0.00    -0.727 N 
ATOM      5  H   LIG    1       -8.411  -3.734 -17.722  0.00  0.00    +0.401 HD
ATOM      6  O   LIG    1       -7.607  -3.868 -20.701  0.00  0.00    -0.528 OA
BRANCH   3  12
ATOM      7  C   LIG    1       -5.674  -1.939 -19.768  0.00  0.00    +0.056 A 
ATOM      8  C   LIG    1       -5.002  -0.781 -19.444  0.00  0.00    +0.005 A 
ATOM      9  C   LIG    1       -5.575   0.137 -18.574  0.00  0.00    +0.110 A 
ATOM     10  C   LIG    1       -6.832  -0.108 -18.025  0.00  0.00    +0.075 A 
ATOM     11  C   LIG    1       -7.511  -1.268 -18.346  0.00  0.00    +0.080 A 
ATOM     12  C   LIG    1       -6.935  -2.192 -19.221  0.00  0.00    -0.131 A 
BRANCH   9  13
ATOM     13  O   LIG    1       -4.908   1.277 -18.257  0.00  0.00    -0.486 OA
ATOM     14  H   LIG    1       -4.682   1.825 -19.021  0.00  0.00    +0.394 HD
ENDBRANCH   9  13
BRANCH  10  15
ATOM     15  O   LIG    1       -7.390   0.793 -17.172  0.00  0.00    -0.483 OA
ATOM     16  H   LIG    1       -6.882   0.934 -16.361  0.00  0.00    +0.391 HD
ENDBRANCH  10  15
ENDBRANCH   3  12
ENDBRANCH   2   4
ENDBRANCH   1   2
BRANCH   1  17
ATOM     17  C   LIG    1       -7.617  -6.616 -17.429  0.00  0.00    +0.274 C 
BRANCH  17  18
ATOM     18  N   LIG    1       -7.166  -7.987 -17.179  0.00  0.00    -0.727 N 
ATOM     19  H   LIG    1       -7.794  -8.654 -16.860  0.00  0.00    +0.401 HD
ATOM     20  C   LIG    1       -5.878  -8.322 -17.393  0.00  0.00    +0.561 C 
ATOM     21  O   LIG    1       -5.091  -7.485 -17.793  0.00  0.00    -0.528 OA
BRANCH  20  22
ATOM     22  C   LIG    1       -5.422  -9.703 -17.142  0.00  0.00    -0.131 A 
ATOM     23  C   LIG    1       -4.701 -10.391 -18.121  0.00  0.00    +0.056 A 
ATOM     24  C   LIG    1       -4.276 -11.680 -17.886  0.00  0.00    +0.005 A 
ATOM     25  C   LIG    1       -4.563 -12.300 -16.677  0.00  0.00    +0.110 A 
ATOM     26  C   LIG    1       -5.284 -11.618 -15.696  0.00  0.00    +0.075 A 
ATOM     27  C   LIG    1       -5.707 -10.324 -15.923  0.00  0.00    +0.080 A 
BRANCH  25  28
ATOM     28  O   LIG    1       -4.143 -13.571 -16.449  0.00  0.00    -0.486 OA
ATOM     29  H   LIG    1       -3.565 -13.662 -15.679  0.00  0.00    +0.394 HD
ENDBRANCH  25  28
BRANCH  26  30
ATOM     30  O   LIG    1       -5.564 -12.229 -14.512  0.00  0.00    -0.483 OA
ATOM     31  H   LIG    1       -6.406 -11.960 -14.121  0.00  0.00    +0.391 HD
ENDBRANCH  26  30
ENDBRANCH  20  22
ENDBRANCH  17  18
ENDBRANCH   1  17
TORSDOF 10
ENDMDL
MODEL 3
REMARK VINA RESULT:      -7.6      6.296      7.133
REMARK  Name = CHEMBL63052
REMARK                            x       y       z     vdW  Elec       q    Type
REMARK                         _______ _______ _______ _____ _____    ______ ____
ROOT
ATOM      1  C   LIG    1       -4.442 -10.960 -23.360  0.00  0.00    +0.014 C 
ENDROOT
BRANCH   1   2
ATOM      2  C   LIG    1       -3.359 -11.422 -22.383  0.00  0.00    +0.274 C 
BRANCH   2   4
ATOM      3  C   LIG    1       -3.501 -10.848 -20.019  0.00  0.00    +0.561 C 
ATOM      4  N   LIG    1       -3.944 -11.593 -21.051  0.00  0.00    -0.727 N 
ATOM      5  H   LIG    1       -4.652 -12.242 -20.912  0.00  0.00    +0.401 HD
ATOM      6  O   LIG    1       -2.615 -10.034 -20.194  0.00  0.00    -0.528 OA
BRANCH   3  12
ATOM      7  C   LIG    1       -4.081 -12.275 -18.063  0.00  0.00    +0.056 A 
ATOM      8  C   LIG    1       -4.633 -12.433 -16.810  0.00  0.00    +0.005 A 
ATOM      9  C   LIG    1       -5.199 -11.347 -16.155  0.00  0.00    +0.110 A 
ATOM     10  C   LIG    1       -5.212 -10.093 -16.762  0.00  0.00    +0.075 A 
ATOM     11  C   LIG    1       -4.661  -9.927 -18.018  0.00  0.00    +0.080 A 
ATOM     12  C   LIG    1       -4.092 -11.020 -18.677  0.00  0.00    -0.131 A 
BRANCH   9  13
ATOM     13  O   LIG    1       -5.742 -11.509 -14.921  0.00  0.00    -0.486 OA
ATOM     14  H   LIG    1       -5.089 -11.579 -14.211  0.00  0.00    +0.394 HD
ENDBRANCH   9  13
BRANCH  10  15
ATOM     15  O   LIG    1       -5.769  -9.032 -16.118  0.00  0.00    -0.483 OA
ATOM     16  H   LIG    1       -5.246  -8.220 -16.174  0.00  0.00    +0.391 HD
ENDBRANCH  10  15
ENDBRANCH   3  12
ENDBRANCH   2   4
ENDBRANCH   1   2
BRANCH   1  17
ATOM     17  C   LIG    1       -4.103  -9.557 -23.869  0.00  0.00    +0.274 C 
BRANCH  17  18
ATOM     18  N   LIG    1       -2.925  -9.052 -23.160  0.00  0.00    -0.727 N 
ATOM     19  H   LIG    1       -2.579  -9.531 -22.391  0.00  0.00    +0.401 HD
ATOM     20  C   LIG    1       -2.321  -7.921 -23.577  0.00  0.00    +0.561 C 
ATOM     21  O   LIG    1       -2.755  -7.321 -24.542  0.00  0.00    -0.528 OA
BRANCH  20  22
ATOM     22  C   LIG    1       -1.134  -7.412 -22.863  0.00  0.00    -0.131 A 
ATOM     23  C   LIG    1       -0.725  -8.011 -21.670  0.00  0.00    +0.056 A 
ATOM     24  C   LIG    1        0.383  -7.535 -21.004  0.00  0.00    +0.005 A 
ATOM     25  C   LIG    1        1.096  -6.458 -21.516  0.00  0.00    +0.110 A 
ATOM     26  C   LIG    1        0.691  -5.855 -22.706  0.00  0.00    +0.075 A 
ATOM     27  C   LIG    1       -0.415  -6.332 -23.382  0.00  0.00    +0.080 A 
BRANCH  25  28
ATOM     28  O   LIG    1        2.187  -5.992 -20.856  0.00  0.00    -0.486 OA
ATOM     29  H   LIG    1        2.007  -5.231 -20.287  0.00  0.00    +0.394 HD
ENDBRANCH  25  28
BRANCH  26  30
ATOM     30  O   LIG    1        1.391  -4.801 -23.206  0.00  0.00    -0.483 OA
ATOM     31  H   LIG    1        2.104  -5.052 -23.810  0.00  0.00    +0.391 HD
ENDBRANCH  26  30
ENDBRANCH  20  22
ENDBRANCH  17  18
ENDBRANCH   1  17
TORSDOF 10
ENDMDL
MODEL 4
REMARK VINA RESULT:      -7.5      6.293      9.468
REMARK  Name = CHEMBL63052
REMARK                            x       y       z     vdW  Elec       q    Type
REMARK                         _______ _______ _______ _____ _____    ______ ____
ROOT
ATOM      1  C   LIG    1       -4.375 -11.049 -23.347  0.00  0.00    +0.014 C 
ENDROOT
BRANCH   1   2
ATOM      2  C   LIG    1       -4.166  -9.587 -23.746  0.00  0.00    +0.274 C 
BRANCH   2   4
ATOM      3  C   LIG    1       -2.328  -7.997 -23.564  0.00  0.00    +0.561 C 
ATOM      4  N   LIG    1       -2.988  -9.056 -23.055  0.00  0.00    -0.727 N 
ATOM      5  H   LIG    1       -2.684  -9.467 -22.231  0.00  0.00    +0.401 HD
ATOM      6  O   LIG    1       -2.710  -7.482 -24.597  0.00  0.00    -0.528 OA
BRANCH   3  12
ATOM      7  C   LIG    1       -0.685  -8.070 -21.696  0.00  0.00    +0.056 A 
ATOM      8  C   LIG    1        0.423  -7.569 -21.047  0.00  0.00    +0.005 A 
ATOM      9  C   LIG    1        1.087  -6.462 -21.556  0.00  0.00    +0.110 A 
ATOM     10  C   LIG    1        0.637  -5.851 -22.724  0.00  0.00    +0.075 A 
ATOM     11  C   LIG    1       -0.473  -6.347 -23.379  0.00  0.00    +0.080 A 
ATOM     12  C   LIG    1       -1.142  -7.462 -22.867  0.00  0.00    -0.131 A 
BRANCH   9  13
ATOM     13  O   LIG    1        2.178  -5.971 -20.911  0.00  0.00    -0.486 OA
ATOM     14  H   LIG    1        2.308  -5.020 -21.028  0.00  0.00    +0.394 HD
ENDBRANCH   9  13
BRANCH  10  15
ATOM     15  O   LIG    1        1.290  -4.764 -23.219  0.00  0.00    -0.483 OA
ATOM     16  H   LIG    1        1.150  -3.955 -22.708  0.00  0.00    +0.391 HD
ENDBRANCH  10  15
ENDBRANCH   3  12
ENDBRANCH   2   4
ENDBRANCH   1   2
BRANCH   1  17
ATOM     17  C   LIG    1       -3.287 -11.468 -22.355  0.00  0.00    +0.274 C 
BRANCH  17  18
ATOM     18  N   LIG    1       -3.879 -11.643 -21.027  0.00  0.00    -0.727 N 
ATOM     19  H   LIG    1       -4.546 -12.332 -20.880  0.00  0.00    +0.401 HD
ATOM     20  C   LIG    1       -3.497 -10.847 -20.009  0.00  0.00    +0.561 C 
ATOM     21  O   LIG    1       -2.661  -9.984 -20.193  0.00  0.00    -0.528 OA
BRANCH  20  22
ATOM     22  C   LIG    1       -4.094 -11.024 -18.670  0.00  0.00    -0.131 A 
ATOM     23  C   LIG    1       -4.082 -12.279 -18.059  0.00  0.00    +0.056 A 
ATOM     24  C   LIG    1       -4.639 -12.443 -16.809  0.00  0.00    +0.005 A 
ATOM     25  C   LIG    1       -5.213 -11.362 -16.154  0.00  0.00    +0.110 A 
ATOM     26  C   LIG    1       -5.229 -10.106 -16.760  0.00  0.00    +0.075 A 
ATOM     27  C   LIG    1       -4.667  -9.934 -18.010  0.00  0.00    +0.080 A 
BRANCH  25  28
ATOM     28  O   LIG    1       -5.761 -11.528 -14.923  0.00  0.00    -0.486 OA
ATOM     29  H   LIG    1       -5.315 -11.030 -14.224  0.00  0.00    +0.394 HD
ENDBRANCH  25  28
BRANCH  26  30
ATOM     30  O   LIG    1       -5.792  -9.048 -16.116  0.00  0.00    -0.483 OA
ATOM     31  H   LIG    1       -5.317  -8.214 -16.237  0.00  0.00    +0.391 HD
ENDBRANCH  26  30
ENDBRANCH  20  22
ENDBRANCH  17  18
ENDBRANCH   1  17
TORSDOF 10
ENDMDL
MODEL 5
REMARK VINA RESULT:      -7.4      7.035      9.658
REMARK  Name = CHEMBL63052
REMARK                            x       y       z     vdW  Elec       q    Type
REMARK                         _______ _______ _______ _____ _____    ______ ____
ROOT
ATOM      1  C   LIG    1       -0.828  -7.957 -20.868  0.00  0.00    +0.014 C 
ENDROOT
BRANCH   1   2
ATOM      2  C   LIG    1       -1.036  -9.472 -20.835  0.00  0.00    +0.274 C 
BRANCH   2   4
ATOM      3  C   LIG    1       -3.075 -10.243 -19.745  0.00  0.00    +0.561 C 
ATOM      4  N   LIG    1       -1.795  -9.834 -19.635  0.00  0.00    -0.727 N 
ATOM      5  H   LIG    1       -1.376  -9.780 -18.762  0.00  0.00    +0.401 HD
ATOM      6  O   LIG    1       -3.599 -10.311 -20.840  0.00  0.00    -0.528 OA
BRANCH   3  12
ATOM      7  C   LIG    1       -3.730 -11.895 -18.002  0.00  0.00    +0.056 A 
ATOM      8  C   LIG    1       -4.444 -12.235 -16.874  0.00  0.00    +0.005 A 
ATOM      9  C   LIG    1       -5.271 -11.300 -16.265  0.00  0.00    +0.110 A 
ATOM     10  C   LIG    1       -5.384 -10.016 -16.792  0.00  0.00    +0.075 A 
ATOM     11  C   LIG    1       -4.671  -9.669 -17.923  0.00  0.00    +0.080 A 
ATOM     12  C   LIG    1       -3.839 -10.609 -18.536  0.00  0.00    -0.131 A 
BRANCH   9  13
ATOM     13  O   LIG    1       -5.974 -11.641 -15.153  0.00  0.00    -0.486 OA
ATOM     14  H   LIG    1       -6.601 -12.363 -15.291  0.00  0.00    +0.394 HD
ENDBRANCH   9  13
BRANCH  10  15
ATOM     15  O   LIG    1       -6.196  -9.103 -16.193  0.00  0.00    -0.483 OA
ATOM     16  H   LIG    1       -6.882  -8.746 -16.774  0.00  0.00    +0.391 HD
ENDBRANCH  10  15
ENDBRANCH   3  12
ENDBRANCH   2   4
ENDBRANCH   1   2
BRANCH   1  17
ATOM     17  C   LIG    1        0.179  -7.604 -21.966  0.00  0.00    +0.274 C 
BRANCH  17  18
ATOM     18  N   LIG    1        1.503  -8.111 -21.595  0.00  0.00    -0.727 N 
ATOM     19  H   LIG    1        1.771  -9.006 -21.857  0.00  0.00    +0.401 HD
ATOM     20  C   LIG    1        2.348  -7.333 -20.890  0.00  0.00    +0.561 C 
ATOM     21  O   LIG    1        2.011  -6.212 -20.562  0.00  0.00    -0.528 OA
BRANCH  20  22
ATOM     22  C   LIG    1        3.682  -7.843 -20.516  0.00  0.00    -0.131 A 
ATOM     23  C   LIG    1        4.830  -7.159 -20.920  0.00  0.00    +0.056 A 
ATOM     24  C   LIG    1        6.075  -7.635 -20.570  0.00  0.00    +0.005 A 
ATOM     25  C   LIG    1        6.192  -8.795 -19.816  0.00  0.00    +0.110 A 
ATOM     26  C   LIG    1        5.048  -9.483 -19.411  0.00  0.00    +0.075 A 
ATOM     27  C   LIG    1        3.798  -9.008 -19.753  0.00  0.00    +0.080 A 
BRANCH  25  28
ATOM     28  O   LIG    1        7.421  -9.261 -19.474  0.00  0.00    -0.486 OA
ATOM     29  H   LIG    1        7.404 -10.108 -19.007  0.00  0.00    +0.394 HD
ENDBRANCH  25  28
BRANCH  26  30
ATOM     30  O   LIG    1        5.166 -10.620 -18.672  0.00  0.00    -0.483 OA
ATOM     31  H   LIG    1        4.583 -11.337 -18.958  0.00  0.00    +0.391 HD
ENDBRANCH  26  30
ENDBRANCH  20  22
ENDBRANCH  17  18
ENDBRANCH   1  17
TORSDOF 10
ENDMDL
MODEL 6
REMARK VINA RESULT:      -7.4      2.970     10.492
REMARK  Name = CHEMBL63052
REMARK                            x       y       z     vdW  Elec       q    Type
REMARK                         _______ _______ _______ _____ _____    ______ ____
ROOT
ATOM      1  C   LIG    1       -5.287 -10.029 -16.821  0.00  0.00    +0.014 C 
ENDROOT
BRANCH   1   2
ATOM      2  C   LIG    1       -6.504  -9.177 -16.454  0.00  0.00    +0.274 C 
BRANCH   2   4
ATOM      3  C   LIG    1       -7.737  -7.314 -17.426  0.00  0.00    +0.561 C 
ATOM      4  N   LIG    1       -6.608  -8.048 -17.381  0.00  0.00    -0.727 N 
ATOM      5  H   LIG    1       -5.864  -7.830 -17.964  0.00  0.00    +0.401 HD
ATOM      6  O   LIG    1       -8.670  -7.588 -16.695  0.00  0.00    -0.528 OA
BRANCH   3  12
ATOM      7  C   LIG    1       -6.799  -5.251 -18.456  0.00  0.00    +0.056 A 
ATOM      8  C   LIG    1       -6.898  -4.189 -19.329  0.00  0.00    +0.005 A 
ATOM      9  C   LIG    1       -8.032  -4.037 -20.115  0.00  0.00    +0.110 A 
ATOM     10  C   LIG    1       -9.075  -4.956 -20.024  0.00  0.00    +0.075 A 
ATOM     11  C   LIG    1       -8.983  -6.022 -19.151  0.00  0.00    +0.080 A 
ATOM     12  C   LIG    1       -7.842  -6.176 -18.360  0.00  0.00    -0.131 A 
BRANCH   9  13
ATOM     13  O   LIG    1       -8.125  -2.988 -20.973  0.00  0.00    -0.486 OA
ATOM     14  H   LIG    1       -8.817  -3.087 -21.641  0.00  0.00    +0.394 HD
ENDBRANCH   9  13
BRANCH  10  15
ATOM     15  O   LIG    1      -10.186  -4.802 -20.796  0.00  0.00    -0.483 OA
ATOM     16  H   LIG    1      -10.979  -4.557 -20.299  0.00  0.00    +0.391 HD
ENDBRANCH  10  15
ENDBRANCH   3  12
ENDBRANCH   2   4
ENDBRANCH   1   2
BRANCH   1  17
ATOM     17  C   LIG    1       -5.321 -11.336 -16.026  0.00  0.00    +0.274 C 
BRANCH  17  18
ATOM     18  N   LIG    1       -5.037 -12.459 -16.922  0.00  0.00    -0.727 N 
ATOM     19  H   LIG    1       -5.648 -13.211 -16.967  0.00  0.00    +0.401 HD
ATOM     20  C   LIG    1       -3.926 -12.448 -17.685  0.00  0.00    +0.561 C 
ATOM     21  O   LIG    1       -3.160 -11.505 -17.629  0.00  0.00    -0.528 OA
BRANCH  20  22
ATOM     22  C   LIG    1       -3.640 -13.579 -18.589  0.00  0.00    -0.131 A 
ATOM     23  C   LIG    1       -3.306 -14.829 -18.061  0.00  0.00    +0.056 A 
ATOM     24  C   LIG    1       -3.039 -15.885 -18.905  0.00  0.00    +0.005 A 
ATOM     25  C   LIG    1       -3.100 -15.710 -20.281  0.00  0.00    +0.110 A 
ATOM     26  C   LIG    1       -3.431 -14.465 -20.814  0.00  0.00    +0.075 A 
ATOM     27  C   LIG    1       -3.706 -13.404 -19.974  0.00  0.00    +0.080 A 
BRANCH  25  28
ATOM     28  O   LIG    1       -2.835 -16.753 -21.110  0.00  0.00    -0.486 OA
ATOM     29  H   LIG    1       -2.174 -16.559 -21.788  0.00  0.00    +0.394 HD
ENDBRANCH  25  28
BRANCH  26  30
ATOM     30  O   LIG    1       -3.490 -14.297 -22.163  0.00  0.00    -0.483 OA
ATOM     31  H   LIG    1       -3.821 -15.070 -22.642  0.00  0.00    +0.391 HD
ENDBRANCH  26  30
ENDBRANCH  20  22
ENDBRANCH  17  18
ENDBRANCH   1  17
TORSDOF 10
ENDMDL
MODEL 7
REMARK VINA RESULT:      -7.2      6.414      7.769
REMARK  Name = CHEMBL63052
REMARK                            x       y       z     vdW  Elec       q    Type
REMARK                         _______ _______ _______ _____ _____    ______ ____
ROOT
ATOM      1  C   LIG    1       -3.701 -10.038 -23.299  0.00  0.00    +0.014 C 
ENDROOT
BRANCH   1   2
ATOM      2  C   LIG    1       -2.799 -10.849 -22.367  0.00  0.00    +0.274 C 
BRANCH   2   4
ATOM      3  C   LIG    1       -3.163 -10.416 -19.997  0.00  0.00    +0.561 C 
ATOM      4  N   LIG    1       -3.501 -11.102 -21.106  0.00  0.00    -0.727 N 
ATOM      5  H   LIG    1       -4.209 -11.764 -21.071  0.00  0.00    +0.401 HD
ATOM      6  O   LIG    1       -2.276  -9.586 -20.043  0.00  0.00    -0.528 OA
BRANCH   3  12
ATOM      7  C   LIG    1       -4.625  -9.656 -18.131  0.00  0.00    +0.056 A 
ATOM      8  C   LIG    1       -5.286  -9.896 -16.946  0.00  0.00    +0.005 A 
ATOM      9  C   LIG    1       -5.205 -11.144 -16.343  0.00  0.00    +0.110 A 
ATOM     10  C   LIG    1       -4.455 -12.159 -16.932  0.00  0.00    +0.075 A 
ATOM     11  C   LIG    1       -3.790 -11.926 -18.120  0.00  0.00    +0.080 A 
ATOM     12  C   LIG    1       -3.871 -10.670 -18.727  0.00  0.00    -0.131 A 
BRANCH   9  13
ATOM     13  O   LIG    1       -5.858 -11.374 -15.174  0.00  0.00    -0.486 OA
ATOM     14  H   LIG    1       -6.559 -10.735 -14.983  0.00  0.00    +0.394 HD
ENDBRANCH   9  13
BRANCH  10  15
ATOM     15  O   LIG    1       -4.378 -13.380 -16.337  0.00  0.00    -0.483 OA
ATOM     16  H   LIG    1       -5.178 -13.915 -16.431  0.00  0.00    +0.391 HD
ENDBRANCH  10  15
ENDBRANCH   3  12
ENDBRANCH   2   4
ENDBRANCH   1   2
BRANCH   1  17
ATOM     17  C   LIG    1       -3.071  -8.667 -23.552  0.00  0.00    +0.274 C 
BRANCH  17  18
ATOM     18  N   LIG    1       -1.824  -8.555 -22.791  0.00  0.00    -0.727 N 
ATOM     19  H   LIG    1       -1.576  -9.249 -22.160  0.00  0.00    +0.401 HD
ATOM     20  C   LIG    1       -1.020  -7.487 -22.967  0.00  0.00    +0.561 C 
ATOM     21  O   LIG    1       -1.331  -6.617 -23.759  0.00  0.00    -0.528 OA
BRANCH  20  22
ATOM     22  C   LIG    1        0.236  -7.374 -22.201  0.00  0.00    -0.131 A 
ATOM     23  C   LIG    1        0.963  -6.181 -22.221  0.00  0.00    +0.056 A 
ATOM     24  C   LIG    1        2.136  -6.076 -21.506  0.00  0.00    +0.005 A 
ATOM     25  C   LIG    1        2.598  -7.154 -20.763  0.00  0.00    +0.110 A 
ATOM     26  C   LIG    1        1.877  -8.348 -20.739  0.00  0.00    +0.075 A 
ATOM     27  C   LIG    1        0.698  -8.458 -21.449  0.00  0.00    +0.080 A 
BRANCH  25  28
ATOM     28  O   LIG    1        3.755  -7.046 -20.059  0.00  0.00    -0.486 OA
ATOM     29  H   LIG    1        3.837  -6.221 -19.562  0.00  0.00    +0.394 HD
ENDBRANCH  25  28
BRANCH  26  30
ATOM     30  O   LIG    1        2.333  -9.403 -20.010  0.00  0.00    -0.483 OA
ATOM     31  H   LIG    1        3.147  -9.797 -20.355  0.00  0.00    +0.391 HD
ENDBRANCH  26  30
ENDBRANCH  20  22
ENDBRANCH  17  18
ENDBRANCH   1  17
TORSDOF 10
ENDMDL
MODEL 8
REMARK VINA RESULT:      -7.2      6.723     10.028
REMARK  Name = CHEMBL63052
REMARK                            x       y       z     vdW  Elec       q    Type
REMARK                         _______ _______ _______ _____ _____    ______ ____
ROOT
ATOM      1  C   LIG    1       -1.239  -8.425 -22.035  0.00  0.00    +0.014 C 
ENDROOT
BRANCH   1   2
ATOM      2  C   LIG    1       -0.661  -7.948 -20.701  0.00  0.00    +0.274 C 
BRANCH   2   4
ATOM      3  C   LIG    1        1.740  -7.537 -20.646  0.00  0.00    +0.561 C 
ATOM      4  N   LIG    1        0.721  -8.416 -20.572  0.00  0.00    -0.727 N 
ATOM      5  H   LIG    1        0.903  -9.358 -20.433  0.00  0.00    +0.401 HD
ATOM      6  O   LIG    1        1.513  -6.355 -20.819  0.00  0.00    -0.528 OA
BRANCH   3  12
ATOM      7  C   LIG    1        4.174  -7.293 -21.111  0.00  0.00    +0.056 A 
ATOM      8  C   LIG    1        5.473  -7.734 -20.988  0.00  0.00    +0.005 A 
ATOM      9  C   LIG    1        5.751  -8.890 -20.271  0.00  0.00    +0.110 A 
ATOM     10  C   LIG    1        4.718  -9.609 -19.673  0.00  0.00    +0.075 A 
ATOM     11  C   LIG    1        3.413  -9.172 -19.793  0.00  0.00    +0.080 A 
ATOM     12  C   LIG    1        3.133  -8.009 -20.515  0.00  0.00    -0.131 A 
BRANCH   9  13
ATOM     13  O   LIG    1        7.034  -9.322 -20.153  0.00  0.00    -0.486 OA
ATOM     14  H   LIG    1        7.522  -9.334 -20.988  0.00  0.00    +0.394 HD
ENDBRANCH   9  13
BRANCH  10  15
ATOM     15  O   LIG    1        4.994 -10.742 -18.972  0.00  0.00    -0.483 OA
ATOM     16  H   LIG    1        4.326 -11.435 -19.065  0.00  0.00    +0.391 HD
ENDBRANCH  10  15
ENDBRANCH   3  12
ENDBRANCH   2   4
ENDBRANCH   1   2
BRANCH   1  17
ATOM     17  C   LIG    1       -1.846  -9.818 -21.858  0.00  0.00    +0.274 C 
BRANCH  17  18
ATOM     18  N   LIG    1       -2.529  -9.892 -20.564  0.00  0.00    -0.727 N 
ATOM     19  H   LIG    1       -2.584  -9.105 -19.999  0.00  0.00    +0.401 HD
ATOM     20  C   LIG    1       -3.082 -11.052 -20.158  0.00  0.00    +0.561 C 
ATOM     21  O   LIG    1       -3.013 -12.038 -20.867  0.00  0.00    -0.528 OA
BRANCH  20  22
ATOM     22  C   LIG    1       -3.770 -11.127 -18.855  0.00  0.00    -0.131 A 
ATOM     23  C   LIG    1       -3.874 -12.350 -18.188  0.00  0.00    +0.056 A 
ATOM     24  C   LIG    1       -4.517 -12.419 -16.971  0.00  0.00    +0.005 A 
ATOM     25  C   LIG    1       -5.063 -11.275 -16.405  0.00  0.00    +0.110 A 
ATOM     26  C   LIG    1       -4.963 -10.051 -17.066  0.00  0.00    +0.075 A 
ATOM     27  C   LIG    1       -4.314  -9.974 -18.283  0.00  0.00    +0.080 A 
BRANCH  25  28
ATOM     28  O   LIG    1       -5.696 -11.348 -15.205  0.00  0.00    -0.486 OA
ATOM     29  H   LIG    1       -6.652 -11.220 -15.258  0.00  0.00    +0.394 HD
ENDBRANCH  25  28
BRANCH  26  30
ATOM     30  O   LIG    1       -5.499  -8.932 -16.508  0.00  0.00    -0.483 OA
ATOM     31  H   LIG    1       -5.656  -8.215 -17.139  0.00  0.00    +0.391 HD
ENDBRANCH  26  30
ENDBRANCH  20  22
ENDBRANCH  17  18
ENDBRANCH   1  17
TORSDOF 10
ENDMDL
MODEL 9
REMARK VINA RESULT:      -7.1      6.663      9.520
REMARK  Name = CHEMBL63052
REMARK                            x       y       z     vdW  Elec       q    Type
REMARK                         _______ _______ _______ _____ _____    ______ ____
ROOT
ATOM      1  C   LIG    1       -1.452  -8.539 -21.932  0.00  0.00    +0.014 C 
ENDROOT
BRANCH   1   2
ATOM      2  C   LIG    1       -1.103  -9.915 -21.361  0.00  0.00    +0.274 C 
BRANCH   2   4
ATOM      3  C   LIG    1       -3.079 -10.558 -20.088  0.00  0.00    +0.561 C 
ATOM      4  N   LIG    1       -1.808 -10.111 -20.092  0.00  0.00    -0.727 N 
ATOM      5  H   LIG    1       -1.359  -9.918 -19.254  0.00  0.00    +0.401 HD
ATOM      6  O   LIG    1       -3.641 -10.800 -21.139  0.00  0.00    -0.528 OA
BRANCH   3  12
ATOM      7  C   LIG    1       -4.532  -9.713 -18.252  0.00  0.00    +0.056 A 
ATOM      8  C   LIG    1       -5.194  -9.899 -17.058  0.00  0.00    +0.005 A 
ATOM      9  C   LIG    1       -5.124 -11.123 -16.406  0.00  0.00    +0.110 A 
ATOM     10  C   LIG    1       -4.384 -12.168 -16.956  0.00  0.00    +0.075 A 
ATOM     11  C   LIG    1       -3.718 -11.988 -18.153  0.00  0.00    +0.080 A 
ATOM     12  C   LIG    1       -3.788 -10.756 -18.809  0.00  0.00    -0.131 A 
BRANCH   9  13
ATOM     13  O   LIG    1       -5.777 -11.301 -15.229  0.00  0.00    -0.486 OA
ATOM     14  H   LIG    1       -6.734 -11.408 -15.323  0.00  0.00    +0.394 HD
ENDBRANCH   9  13
BRANCH  10  15
ATOM     15  O   LIG    1       -4.317 -13.365 -16.314  0.00  0.00    -0.483 OA
ATOM     16  H   LIG    1       -5.151 -13.641 -15.909  0.00  0.00    +0.391 HD
ENDBRANCH  10  15
ENDBRANCH   3  12
ENDBRANCH   2   4
ENDBRANCH   1   2
BRANCH   1  17
ATOM     17  C   LIG    1       -0.483  -7.495 -21.373  0.00  0.00    +0.274 C 
BRANCH  17  18
ATOM     18  N   LIG    1        0.796  -8.137 -21.056  0.00  0.00    -0.727 N 
ATOM     19  H   LIG    1        0.872  -9.103 -21.078  0.00  0.00    +0.401 HD
ATOM     20  C   LIG    1        1.866  -7.383 -20.734  0.00  0.00    +0.561 C 
ATOM     21  O   LIG    1        1.770  -6.171 -20.707  0.00  0.00    -0.528 OA
BRANCH  20  22
ATOM     22  C   LIG    1        3.154  -8.029 -20.415  0.00  0.00    -0.131 A 
ATOM     23  C   LIG    1        4.300  -7.252 -20.235  0.00  0.00    +0.056 A 
ATOM     24  C   LIG    1        5.503  -7.855 -19.937  0.00  0.00    +0.005 A 
ATOM     25  C   LIG    1        5.579  -9.236 -19.814  0.00  0.00    +0.110 A 
ATOM     26  C   LIG    1        4.437 -10.018 -19.993  0.00  0.00    +0.075 A 
ATOM     27  C   LIG    1        3.228  -9.419 -20.286  0.00  0.00    +0.080 A 
BRANCH  25  28
ATOM     28  O   LIG    1        6.766  -9.827 -19.520  0.00  0.00    -0.486 OA
ATOM     29  H   LIG    1        6.737 -10.793 -19.532  0.00  0.00    +0.394 HD
ENDBRANCH  25  28
BRANCH  26  30
ATOM     30  O   LIG    1        4.515 -11.371 -19.873  0.00  0.00    -0.483 OA
ATOM     31  H   LIG    1        4.655 -11.678 -18.966  0.00  0.00    +0.391 HD
ENDBRANCH  26  30
ENDBRANCH  20  22
ENDBRANCH  17  18
ENDBRANCH   1  17
TORSDOF 10
ENDMDL
