MODEL 1
REMARK VINA RESULT:      -6.2      0.000      0.000
REMARK  Name = CHEMBL167055
REMARK                            x       y       z     vdW  Elec       q    Type
REMARK                         _______ _______ _______ _____ _____    ______ ____
ROOT
ATOM      1  C   LIG    1       -3.382 -11.488 -19.103  0.00  0.00    -0.079 A 
ATOM      2  C   LIG    1       -4.089 -10.357 -18.664  0.00  0.00    +0.119 A 
ATOM      3  C   LIG    1       -4.813 -10.409 -17.507  0.00  0.00    -0.060 A 
ATOM      4  C   LIG    1       -4.855 -11.580 -16.757  0.00  0.00    +0.169 A 
ATOM      5  C   LIG    1       -4.156 -12.712 -17.180  0.00  0.00    +0.088 A 
ATOM      6  C   LIG    1       -3.427 -12.674 -18.350  0.00  0.00    +0.115 A 
ENDROOT
BRANCH   3   7
ATOM      7  N   LIG    1       -5.557  -9.215 -17.050  0.00  0.00    +0.035 N 
ATOM      8  O   LIG    1       -6.632  -9.340 -16.512  0.00  0.00    -0.125 OA
ATOM      9  O   LIG    1       -5.088  -8.112 -17.214  0.00  0.00    -0.159 OA
ENDBRANCH   3   7
BRANCH   1  11
ATOM     10  C   LIG    1       -2.959 -12.269 -21.365  0.00  0.00    -0.260 C 
ATOM     11  C   LIG    1       -2.630 -11.437 -20.304  0.00  0.00    +0.190 C 
BRANCH  10  13
ATOM     12  C   LIG    1       -4.069 -14.587 -21.246  0.00  0.00    +0.086 C 
ATOM     13  C   LIG    1       -4.173 -13.086 -21.305  0.00  0.00    +0.390 C 
ATOM     14  O   LIG    1       -5.263 -12.552 -21.302  0.00  0.00    -0.430 OA
ENDBRANCH  10  13
BRANCH  10  15
ATOM     15  C   LIG    1       -2.093 -12.331 -22.542  0.00  0.00    +0.404 C 
ATOM     16  C   LIG    1       -0.604 -12.485 -22.375  0.00  0.00    +0.082 C 
ATOM     17  O   LIG    1       -2.575 -12.260 -23.653  0.00  0.00    -0.448 OA
ENDBRANCH  10  15
ENDBRANCH   1  11
BRANCH   4  18
ATOM     18  O   LIG    1       -5.577 -11.620 -15.609  0.00  0.00    -0.457 OA
ATOM     19  H   LIG    1       -5.214 -11.074 -14.898  0.00  0.00    +0.407 HD
ENDBRANCH   4  18
BRANCH   5  20
ATOM     20  O   LIG    1       -4.200 -13.854 -16.442  0.00  0.00    -0.469 OA
ATOM     21  H   LIG    1       -4.327 -14.657 -16.967  0.00  0.00    +0.400 HD
ENDBRANCH   5  20
TORSDOF 6
ENDMDL
MODEL 2
REMARK VINA RESULT:      -6.0      2.251      3.151
REMARK  Name = CHEMBL167055
REMARK                            x       y       z     vdW  Elec       q    Type
REMARK                         _______ _______ _______ _____ _____    ______ ____
ROOT
ATOM      1  C   LIG    1       -3.818 -11.190 -20.239  0.00  0.00    -0.079 A 
ATOM      2  C   LIG    1       -4.379 -10.501 -19.152  0.00  0.00    +0.119 A 
ATOM      3  C   LIG    1       -4.497 -11.117 -17.939  0.00  0.00    -0.060 A 
ATOM      4  C   LIG    1       -4.063 -12.427 -17.772  0.00  0.00    +0.169 A 
ATOM      5  C   LIG    1       -3.503 -13.125 -18.843  0.00  0.00    +0.088 A 
ATOM      6  C   LIG    1       -3.385 -12.517 -20.074  0.00  0.00    +0.115 A 
ENDROOT
BRANCH   3   7
ATOM      7  N   LIG    1       -5.089 -10.385 -16.797  0.00  0.00    +0.035 N 
ATOM      8  O   LIG    1       -4.974  -9.185 -16.722  0.00  0.00    -0.125 OA
ATOM      9  O   LIG    1       -5.689 -10.989 -15.937  0.00  0.00    -0.159 OA
ENDBRANCH   3   7
BRANCH   1  11
ATOM     10  C   LIG    1       -2.577  -9.781 -21.781  0.00  0.00    -0.260 C 
ATOM     11  C   LIG    1       -3.695 -10.553 -21.500  0.00  0.00    +0.190 C 
BRANCH  10  13
ATOM     12  C   LIG    1       -1.393  -8.690 -19.773  0.00  0.00    +0.086 C 
ATOM     13  C   LIG    1       -1.453  -9.750 -20.842  0.00  0.00    +0.390 C 
ATOM     14  O   LIG    1       -0.571 -10.579 -20.924  0.00  0.00    -0.430 OA
ENDBRANCH  10  13
BRANCH  10  15
ATOM     15  C   LIG    1       -2.519  -8.997 -23.015  0.00  0.00    +0.404 C 
ATOM     16  C   LIG    1       -3.696  -8.986 -23.956  0.00  0.00    +0.082 C 
ATOM     17  O   LIG    1       -1.525  -8.355 -23.280  0.00  0.00    -0.448 OA
ENDBRANCH  10  15
ENDBRANCH   1  11
BRANCH   4  18
ATOM     18  O   LIG    1       -4.185 -13.029 -16.561  0.00  0.00    -0.457 OA
ATOM     19  H   LIG    1       -4.285 -13.990 -16.608  0.00  0.00    +0.407 HD
ENDBRANCH   4  18
BRANCH   5  20
ATOM     20  O   LIG    1       -3.080 -14.407 -18.674  0.00  0.00    -0.469 OA
ATOM     21  H   LIG    1       -3.775 -15.069 -18.791  0.00  0.00    +0.400 HD
ENDBRANCH   5  20
TORSDOF 6
ENDMDL
MODEL 3
REMARK VINA RESULT:      -5.9      2.026      3.307
REMARK  Name = CHEMBL167055
REMARK                            x       y       z     vdW  Elec       q    Type
REMARK                         _______ _______ _______ _____ _____    ______ ____
ROOT
ATOM      1  C   LIG    1       -3.311 -10.166 -19.045  0.00  0.00    -0.079 A 
ATOM      2  C   LIG    1       -3.185 -11.525 -18.714  0.00  0.00    +0.119 A 
ATOM      3  C   LIG    1       -3.961 -12.063 -17.727  0.00  0.00    -0.060 A 
ATOM      4  C   LIG    1       -4.880 -11.272 -17.046  0.00  0.00    +0.169 A 
ATOM      5  C   LIG    1       -5.016  -9.919 -17.365  0.00  0.00    +0.088 A 
ATOM      6  C   LIG    1       -4.233  -9.363 -18.354  0.00  0.00    +0.115 A 
ENDROOT
BRANCH   3   7
ATOM      7  N   LIG    1       -3.825 -13.496 -17.382  0.00  0.00    +0.035 N 
ATOM      8  O   LIG    1       -3.659 -14.315 -18.255  0.00  0.00    -0.125 OA
ATOM      9  O   LIG    1       -3.879 -13.847 -16.226  0.00  0.00    -0.159 OA
ENDBRANCH   3   7
BRANCH   1  11
ATOM     10  C   LIG    1       -2.682 -10.003 -21.386  0.00  0.00    -0.260 C 
ATOM     11  C   LIG    1       -2.505  -9.606 -20.068  0.00  0.00    +0.190 C 
BRANCH  10  13
ATOM     12  C   LIG    1       -3.579 -12.362 -21.887  0.00  0.00    +0.086 C 
ATOM     13  C   LIG    1       -3.800 -10.878 -21.743  0.00  0.00    +0.390 C 
ATOM     14  O   LIG    1       -4.904 -10.410 -21.923  0.00  0.00    -0.430 OA
ENDBRANCH  10  13
BRANCH  10  15
ATOM     15  C   LIG    1       -1.752  -9.546 -22.419  0.00  0.00    +0.404 C 
ATOM     16  C   LIG    1       -1.977  -8.224 -23.105  0.00  0.00    +0.082 C 
ATOM     17  O   LIG    1       -0.799 -10.232 -22.723  0.00  0.00    -0.448 OA
ENDBRANCH  10  15
ENDBRANCH   1  11
BRANCH   4  18
ATOM     18  O   LIG    1       -5.647 -11.817 -16.068  0.00  0.00    -0.457 OA
ATOM     19  H   LIG    1       -5.612 -12.783 -16.034  0.00  0.00    +0.407 HD
ENDBRANCH   4  18
BRANCH   5  20
ATOM     20  O   LIG    1       -5.916  -9.150 -16.696  0.00  0.00    -0.469 OA
ATOM     21  H   LIG    1       -6.835  -9.298 -16.961  0.00  0.00    +0.400 HD
ENDBRANCH   5  20
TORSDOF 6
ENDMDL
MODEL 4
REMARK VINA RESULT:      -5.9      2.770      4.287
REMARK  Name = CHEMBL167055
REMARK                            x       y       z     vdW  Elec       q    Type
REMARK                         _______ _______ _______ _____ _____    ______ ____
ROOT
ATOM      1  C   LIG    1       -3.822 -11.366 -20.161  0.00  0.00    -0.079 A 
ATOM      2  C   LIG    1       -3.492 -12.730 -20.212  0.00  0.00    +0.119 A 
ATOM      3  C   LIG    1       -3.456 -13.468 -19.064  0.00  0.00    -0.060 A 
ATOM      4  C   LIG    1       -3.745 -12.876 -17.839  0.00  0.00    +0.169 A 
ATOM      5  C   LIG    1       -4.075 -11.521 -17.773  0.00  0.00    +0.088 A 
ATOM      6  C   LIG    1       -4.109 -10.764 -18.925  0.00  0.00    +0.115 A 
ENDROOT
BRANCH   3   7
ATOM      7  N   LIG    1       -3.108 -14.905 -19.123  0.00  0.00    +0.035 N 
ATOM      8  O   LIG    1       -2.404 -15.393 -18.270  0.00  0.00    -0.125 OA
ATOM      9  O   LIG    1       -3.528 -15.592 -20.025  0.00  0.00    -0.159 OA
ENDBRANCH   3   7
BRANCH   1  11
ATOM     10  C   LIG    1       -2.718  -9.942 -21.791  0.00  0.00    -0.260 C 
ATOM     11  C   LIG    1       -3.860 -10.598 -21.352  0.00  0.00    +0.190 C 
BRANCH  10  13
ATOM     12  C   LIG    1       -1.033  -9.297 -19.956  0.00  0.00    +0.086 C 
ATOM     13  C   LIG    1       -1.438 -10.169 -21.116  0.00  0.00    +0.390 C 
ATOM     14  O   LIG    1       -0.704 -11.060 -21.490  0.00  0.00    -0.430 OA
ENDBRANCH  10  13
BRANCH  10  15
ATOM     15  C   LIG    1       -2.791  -9.025 -22.929  0.00  0.00    +0.404 C 
ATOM     16  C   LIG    1       -1.721  -7.983 -23.127  0.00  0.00    +0.082 C 
ATOM     17  O   LIG    1       -3.714  -9.103 -23.712  0.00  0.00    -0.448 OA
ENDBRANCH  10  15
ENDBRANCH   1  11
BRANCH   4  18
ATOM     18  O   LIG    1       -3.707 -13.619 -16.704  0.00  0.00    -0.457 OA
ATOM     19  H   LIG    1       -4.455 -13.467 -16.110  0.00  0.00    +0.407 HD
ENDBRANCH   4  18
BRANCH   5  20
ATOM     20  O   LIG    1       -4.358 -10.947 -16.572  0.00  0.00    -0.469 OA
ATOM     21  H   LIG    1       -3.584 -10.582 -16.119  0.00  0.00    +0.400 HD
ENDBRANCH   5  20
TORSDOF 6
ENDMDL
MODEL 5
REMARK VINA RESULT:      -5.4     11.184     12.663
REMARK  Name = CHEMBL167055
REMARK                            x       y       z     vdW  Elec       q    Type
REMARK                         _______ _______ _______ _____ _____    ______ ____
ROOT
ATOM      1  C   LIG    1        7.436  -6.085 -18.539  0.00  0.00    -0.079 A 
ATOM      2  C   LIG    1        7.018  -5.806 -17.228  0.00  0.00    +0.119 A 
ATOM      3  C   LIG    1        6.946  -4.513 -16.794  0.00  0.00    -0.060 A 
ATOM      4  C   LIG    1        7.286  -3.467 -17.645  0.00  0.00    +0.169 A 
ATOM      5  C   LIG    1        7.703  -3.729 -18.951  0.00  0.00    +0.088 A 
ATOM      6  C   LIG    1        7.786  -5.030 -19.399  0.00  0.00    +0.115 A 
ENDROOT
BRANCH   3   7
ATOM      7  N   LIG    1        6.504  -4.225 -15.411  0.00  0.00    +0.035 N 
ATOM      8  O   LIG    1        6.827  -4.959 -14.507  0.00  0.00    -0.125 OA
ATOM      9  O   LIG    1        5.820  -3.253 -15.186  0.00  0.00    -0.159 OA
ENDBRANCH   3   7
BRANCH   1  11
ATOM     10  C   LIG    1        6.471  -7.970 -19.731  0.00  0.00    -0.260 C 
ATOM     11  C   LIG    1        7.512  -7.427 -18.992  0.00  0.00    +0.190 C 
BRANCH  10  13
ATOM     12  C   LIG    1        5.372  -6.549 -21.575  0.00  0.00    +0.086 C 
ATOM     13  C   LIG    1        5.368  -7.116 -20.178  0.00  0.00    +0.390 C 
ATOM     14  O   LIG    1        4.450  -6.866 -19.425  0.00  0.00    -0.430 OA
ENDBRANCH  10  13
BRANCH  10  15
ATOM     15  C   LIG    1        6.474  -9.394 -20.065  0.00  0.00    +0.404 C 
ATOM     16  C   LIG    1        5.382 -10.292 -19.542  0.00  0.00    +0.082 C 
ATOM     17  O   LIG    1        7.354  -9.852 -20.762  0.00  0.00    -0.448 OA
ENDBRANCH  10  15
ENDBRANCH   1  11
BRANCH   4  18
ATOM     18  O   LIG    1        7.210  -2.186 -17.203  0.00  0.00    -0.457 OA
ATOM     19  H   LIG    1        6.638  -1.619 -17.738  0.00  0.00    +0.407 HD
ENDBRANCH   4  18
BRANCH   5  20
ATOM     20  O   LIG    1        8.034  -2.702 -19.779  0.00  0.00    -0.469 OA
ATOM     21  H   LIG    1        8.981  -2.637 -19.967  0.00  0.00    +0.400 HD
ENDBRANCH   5  20
TORSDOF 6
ENDMDL
MODEL 6
REMARK VINA RESULT:      -5.4      2.880      5.933
REMARK  Name = CHEMBL167055
REMARK                            x       y       z     vdW  Elec       q    Type
REMARK                         _______ _______ _______ _____ _____    ______ ____
ROOT
ATOM      1  C   LIG    1       -3.368  -9.831 -19.512  0.00  0.00    -0.079 A 
ATOM      2  C   LIG    1       -2.062  -9.315 -19.497  0.00  0.00    +0.119 A 
ATOM      3  C   LIG    1       -1.212  -9.576 -20.533  0.00  0.00    -0.060 A 
ATOM      4  C   LIG    1       -1.632 -10.353 -21.608  0.00  0.00    +0.169 A 
ATOM      5  C   LIG    1       -2.927 -10.873 -21.636  0.00  0.00    +0.088 A 
ATOM      6  C   LIG    1       -3.793 -10.622 -20.593  0.00  0.00    +0.115 A 
ENDROOT
BRANCH   3   7
ATOM      7  N   LIG    1        0.163  -9.029 -20.513  0.00  0.00    +0.035 N 
ATOM      8  O   LIG    1        1.112  -9.776 -20.561  0.00  0.00    -0.125 OA
ATOM      9  O   LIG    1        0.337  -7.834 -20.450  0.00  0.00    -0.159 OA
ENDBRANCH   3   7
BRANCH   1  11
ATOM     10  C   LIG    1       -4.577 -10.568 -17.537  0.00  0.00    -0.260 C 
ATOM     11  C   LIG    1       -4.252  -9.562 -18.437  0.00  0.00    +0.190 C 
BRANCH  10  13
ATOM     12  C   LIG    1       -4.493 -12.996 -18.384  0.00  0.00    +0.086 C 
ATOM     13  C   LIG    1       -3.889 -11.859 -17.602  0.00  0.00    +0.390 C 
ATOM     14  O   LIG    1       -2.832 -12.013 -17.027  0.00  0.00    -0.430 OA
ENDBRANCH  10  13
BRANCH  10  15
ATOM     15  C   LIG    1       -5.607 -10.339 -16.523  0.00  0.00    +0.404 C 
ATOM     16  C   LIG    1       -6.486  -9.118 -16.605  0.00  0.00    +0.082 C 
ATOM     17  O   LIG    1       -5.753 -11.132 -15.617  0.00  0.00    -0.448 OA
ENDBRANCH  10  15
ENDBRANCH   1  11
BRANCH   4  18
ATOM     18  O   LIG    1       -0.779 -10.605 -22.632  0.00  0.00    -0.457 OA
ATOM     19  H   LIG    1       -0.451  -9.811 -23.076  0.00  0.00    +0.407 HD
ENDBRANCH   4  18
BRANCH   5  20
ATOM     20  O   LIG    1       -3.333 -11.632 -22.690  0.00  0.00    -0.469 OA
ATOM     21  H   LIG    1       -2.831 -12.452 -22.800  0.00  0.00    +0.400 HD
ENDBRANCH   5  20
TORSDOF 6
ENDMDL
MODEL 7
REMARK VINA RESULT:      -5.2      3.952      5.435
REMARK  Name = CHEMBL167055
REMARK                            x       y       z     vdW  Elec       q    Type
REMARK                         _______ _______ _______ _____ _____    ______ ____
ROOT
ATOM      1  C   LIG    1       -1.658  -9.075 -21.160  0.00  0.00    -0.079 A 
ATOM      2  C   LIG    1       -2.232  -9.289 -19.896  0.00  0.00    +0.119 A 
ATOM      3  C   LIG    1       -2.935 -10.434 -19.649  0.00  0.00    -0.060 A 
ATOM      4  C   LIG    1       -3.086 -11.394 -20.644  0.00  0.00    +0.169 A 
ATOM      5  C   LIG    1       -2.520 -11.195 -21.905  0.00  0.00    +0.088 A 
ATOM      6  C   LIG    1       -1.815 -10.040 -22.169  0.00  0.00    +0.115 A 
ENDROOT
BRANCH   3   7
ATOM      7  N   LIG    1       -3.537 -10.655 -18.316  0.00  0.00    +0.035 N 
ATOM      8  O   LIG    1       -4.299  -9.839 -17.854  0.00  0.00    -0.125 OA
ATOM      9  O   LIG    1       -3.267 -11.653 -17.688  0.00  0.00    -0.159 OA
ENDBRANCH   3   7
BRANCH   1  11
ATOM     10  C   LIG    1        0.457  -7.899 -21.373  0.00  0.00    -0.260 C 
ATOM     11  C   LIG    1       -0.930  -7.887 -21.418  0.00  0.00    +0.190 C 
BRANCH  10  13
ATOM     12  C   LIG    1        1.733  -9.872 -22.422  0.00  0.00    +0.086 C 
ATOM     13  C   LIG    1        1.173  -9.167 -21.214  0.00  0.00    +0.390 C 
ATOM     14  O   LIG    1        1.315  -9.649 -20.110  0.00  0.00    -0.430 OA
ENDBRANCH  10  13
BRANCH  10  15
ATOM     15  C   LIG    1        1.205  -6.647 -21.483  0.00  0.00    +0.404 C 
ATOM     16  C   LIG    1        1.019  -5.762 -22.688  0.00  0.00    +0.082 C 
ATOM     17  O   LIG    1        1.975  -6.320 -20.604  0.00  0.00    -0.448 OA
ENDBRANCH  10  15
ENDBRANCH   1  11
BRANCH   4  18
ATOM     18  O   LIG    1       -3.785 -12.528 -20.388  0.00  0.00    -0.457 OA
ATOM     19  H   LIG    1       -3.357 -13.117 -19.750  0.00  0.00    +0.407 HD
ENDBRANCH   4  18
BRANCH   5  20
ATOM     20  O   LIG    1       -2.671 -12.137 -22.875  0.00  0.00    -0.469 OA
ATOM     21  H   LIG    1       -3.001 -11.788 -23.715  0.00  0.00    +0.400 HD
ENDBRANCH   5  20
TORSDOF 6
ENDMDL
MODEL 8
REMARK VINA RESULT:      -5.2      2.196      3.733
REMARK  Name = CHEMBL167055
REMARK                            x       y       z     vdW  Elec       q    Type
REMARK                         _______ _______ _______ _____ _____    ______ ____
ROOT
ATOM      1  C   LIG    1       -4.145 -12.707 -20.690  0.00  0.00    -0.079 A 
ATOM      2  C   LIG    1       -4.493 -12.574 -19.336  0.00  0.00    +0.119 A 
ATOM      3  C   LIG    1       -4.174 -11.432 -18.657  0.00  0.00    -0.060 A 
ATOM      4  C   LIG    1       -3.506 -10.396 -19.301  0.00  0.00    +0.169 A 
ATOM      5  C   LIG    1       -3.155 -10.514 -20.647  0.00  0.00    +0.088 A 
ATOM      6  C   LIG    1       -3.464 -11.664 -21.341  0.00  0.00    +0.115 A 
ENDROOT
BRANCH   3   7
ATOM      7  N   LIG    1       -4.543 -11.297 -17.231  0.00  0.00    +0.035 N 
ATOM      8  O   LIG    1       -4.439 -12.243 -16.487  0.00  0.00    -0.125 OA
ATOM      9  O   LIG    1       -4.948 -10.238 -16.809  0.00  0.00    -0.159 OA
ENDBRANCH   3   7
BRANCH   1  11
ATOM     10  C   LIG    1       -3.610 -14.978 -21.368  0.00  0.00    -0.260 C 
ATOM     11  C   LIG    1       -4.473 -13.892 -21.396  0.00  0.00    +0.190 C 
BRANCH  10  13
ATOM     12  C   LIG    1       -2.546 -15.505 -19.084  0.00  0.00    +0.086 C 
ATOM     13  C   LIG    1       -2.441 -14.962 -20.486  0.00  0.00    +0.390 C 
ATOM     14  O   LIG    1       -1.387 -14.511 -20.884  0.00  0.00    -0.430 OA
ENDBRANCH  10  13
BRANCH  10  15
ATOM     15  C   LIG    1       -3.867 -16.141 -22.218  0.00  0.00    +0.404 C 
ATOM     16  C   LIG    1       -4.460 -17.392 -21.625  0.00  0.00    +0.082 C 
ATOM     17  O   LIG    1       -3.604 -16.096 -23.401  0.00  0.00    -0.448 OA
ENDBRANCH  10  15
ENDBRANCH   1  11
BRANCH   4  18
ATOM     18  O   LIG    1       -3.196  -9.265 -18.617  0.00  0.00    -0.457 OA
ATOM     19  H   LIG    1       -3.419  -8.449 -19.086  0.00  0.00    +0.407 HD
ENDBRANCH   4  18
BRANCH   5  20
ATOM     20  O   LIG    1       -2.502  -9.497 -21.271  0.00  0.00    -0.469 OA
ATOM     21  H   LIG    1       -2.334  -8.731 -20.705  0.00  0.00    +0.400 HD
ENDBRANCH   5  20
TORSDOF 6
ENDMDL
MODEL 9
REMARK VINA RESULT:      -5.1     11.646     12.917
REMARK  Name = CHEMBL167055
REMARK                            x       y       z     vdW  Elec       q    Type
REMARK                         _______ _______ _______ _____ _____    ______ ____
ROOT
ATOM      1  C   LIG    1        7.454  -5.895 -17.718  0.00  0.00    -0.079 A 
ATOM      2  C   LIG    1        7.656  -4.674 -18.381  0.00  0.00    +0.119 A 
ATOM      3  C   LIG    1        7.292  -3.502 -17.781  0.00  0.00    -0.060 A 
ATOM      4  C   LIG    1        6.722  -3.510 -16.513  0.00  0.00    +0.169 A 
ATOM      5  C   LIG    1        6.516  -4.716 -15.841  0.00  0.00    +0.088 A 
ATOM      6  C   LIG    1        6.873  -5.906 -16.439  0.00  0.00    +0.115 A 
ENDROOT
BRANCH   3   7
ATOM      7  N   LIG    1        7.506  -2.218 -18.485  0.00  0.00    +0.035 N 
ATOM      8  O   LIG    1        7.297  -2.137 -19.673  0.00  0.00    -0.125 OA
ATOM      9  O   LIG    1        7.890  -1.249 -17.871  0.00  0.00    -0.159 OA
ENDBRANCH   3   7
BRANCH   1  11
ATOM     10  C   LIG    1        7.003  -7.690 -19.292  0.00  0.00    -0.260 C 
ATOM     11  C   LIG    1        7.830  -7.113 -18.338  0.00  0.00    +0.190 C 
BRANCH  10  13
ATOM     12  C   LIG    1        5.833  -6.331 -21.137  0.00  0.00    +0.086 C 
ATOM     13  C   LIG    1        5.823  -6.968 -19.771  0.00  0.00    +0.390 C 
ATOM     14  O   LIG    1        4.837  -6.882 -19.069  0.00  0.00    -0.430 OA
ENDBRANCH  10  13
BRANCH  10  15
ATOM     15  C   LIG    1        7.309  -9.021 -19.818  0.00  0.00    +0.404 C 
ATOM     16  C   LIG    1        6.437 -10.194 -19.454  0.00  0.00    +0.082 C 
ATOM     17  O   LIG    1        8.265  -9.179 -20.548  0.00  0.00    -0.448 OA
ENDBRANCH  10  15
ENDBRANCH   1  11
BRANCH   4  18
ATOM     18  O   LIG    1        6.365  -2.339 -15.926  0.00  0.00    -0.457 OA
ATOM     19  H   LIG    1        5.689  -2.433 -15.241  0.00  0.00    +0.407 HD
ENDBRANCH   4  18
BRANCH   5  20
ATOM     20  O   LIG    1        5.959  -4.718 -14.600  0.00  0.00    -0.469 OA
ATOM     21  H   LIG    1        5.027  -4.979 -14.588  0.00  0.00    +0.400 HD
ENDBRANCH   5  20
TORSDOF 6
ENDMDL
