MODEL 1
REMARK VINA RESULT:      -7.5      0.000      0.000
REMARK  Name = CHEMBL169033
REMARK                            x       y       z     vdW  Elec       q    Type
REMARK                         _______ _______ _______ _____ _____    ______ ____
ROOT
ATOM      1  C   LIG    1       -6.276  -2.292 -19.494  0.00  0.00    -0.296 A 
ATOM      2  C   LIG    1       -6.820  -1.468 -18.502  0.00  0.00    +0.196 A 
ATOM      3  C   LIG    1       -6.252  -0.243 -18.237  0.00  0.00    -0.204 A 
ATOM      4  C   LIG    1       -5.139   0.180 -18.953  0.00  0.00    +0.309 A 
ATOM      5  O   LIG    1       -4.582   1.390 -18.687  0.00  0.00    -0.606 OA
ATOM      6  C   LIG    1       -4.590  -0.635 -19.943  0.00  0.00    -0.027 A 
ATOM      7  C   LIG    1       -5.150  -1.868 -20.211  0.00  0.00    +0.097 A 
ENDROOT
BRANCH   1   9
ATOM      8  C   LIG    1       -7.864  -3.747 -20.910  0.00  0.00    +0.058 C 
ATOM      9  C   LIG    1       -6.880  -3.601 -19.778  0.00  0.00    +0.407 C 
ATOM     10  O   LIG    1       -6.586  -4.564 -19.101  0.00  0.00    -0.490 OA
ENDBRANCH   1   9
BRANCH   3  11
ATOM     11  N   LIG    1       -6.829   0.628 -17.189  0.00  0.00    +0.069 N 
ATOM     12  O   LIG    1       -7.635   1.479 -17.486  0.00  0.00    -0.155 OA
ATOM     13  O   LIG    1       -6.496   0.488 -16.035  0.00  0.00    -0.247 OA
ENDBRANCH   3  11
BRANCH   6  14
ATOM     14  O   LIG    1       -3.500  -0.218 -20.641  0.00  0.00    -0.480 OA
ATOM     15  H   LIG    1       -3.089  -0.908 -21.178  0.00  0.00    +0.369 HD
ENDBRANCH   6  14
TORSDOF 3
ENDMDL
MODEL 2
REMARK VINA RESULT:      -7.2      1.653      3.328
REMARK  Name = CHEMBL169033
REMARK                            x       y       z     vdW  Elec       q    Type
REMARK                         _______ _______ _______ _____ _____    ______ ____
ROOT
ATOM      1  C   LIG    1       -6.941  -2.563 -19.370  0.00  0.00    -0.296 A 
ATOM      2  C   LIG    1       -5.636  -2.296 -19.799  0.00  0.00    +0.196 A 
ATOM      3  C   LIG    1       -5.020  -1.120 -19.439  0.00  0.00    -0.204 A 
ATOM      4  C   LIG    1       -5.690  -0.195 -18.647  0.00  0.00    +0.309 A 
ATOM      5  O   LIG    1       -5.077   0.965 -18.295  0.00  0.00    -0.606 OA
ATOM      6  C   LIG    1       -6.991  -0.453 -18.214  0.00  0.00    -0.027 A 
ATOM      7  C   LIG    1       -7.618  -1.628 -18.577  0.00  0.00    +0.097 A 
ENDROOT
BRANCH   1   9
ATOM      8  C   LIG    1       -7.618  -4.984 -18.799  0.00  0.00    +0.058 C 
ATOM      9  C   LIG    1       -7.601  -3.818 -19.754  0.00  0.00    +0.407 C 
ATOM     10  O   LIG    1       -8.133  -3.915 -20.840  0.00  0.00    -0.490 OA
ENDBRANCH   1   9
BRANCH   3  11
ATOM     11  N   LIG    1       -3.639  -0.839 -19.893  0.00  0.00    +0.069 N 
ATOM     12  O   LIG    1       -2.699  -1.317 -19.301  0.00  0.00    -0.155 OA
ATOM     13  O   LIG    1       -3.451  -0.133 -20.856  0.00  0.00    -0.247 OA
ENDBRANCH   3  11
BRANCH   6  14
ATOM     14  O   LIG    1       -7.643   0.455 -17.440  0.00  0.00    -0.480 OA
ATOM     15  H   LIG    1       -7.375   0.444 -16.511  0.00  0.00    +0.369 HD
ENDBRANCH   6  14
TORSDOF 3
ENDMDL
MODEL 3
REMARK VINA RESULT:      -6.7      1.590      3.768
REMARK  Name = CHEMBL169033
REMARK                            x       y       z     vdW  Elec       q    Type
REMARK                         _______ _______ _______ _____ _____    ______ ____
ROOT
ATOM      1  C   LIG    1       -4.254   0.070 -20.181  0.00  0.00    -0.296 A 
ATOM      2  C   LIG    1       -4.852   0.696 -19.082  0.00  0.00    +0.196 A 
ATOM      3  C   LIG    1       -5.877   0.071 -18.408  0.00  0.00    -0.204 A 
ATOM      4  C   LIG    1       -6.319  -1.181 -18.816  0.00  0.00    +0.309 A 
ATOM      5  O   LIG    1       -7.331  -1.793 -18.147  0.00  0.00    -0.606 OA
ATOM      6  C   LIG    1       -5.728  -1.812 -19.910  0.00  0.00    -0.027 A 
ATOM      7  C   LIG    1       -4.704  -1.190 -20.595  0.00  0.00    +0.097 A 
ENDROOT
BRANCH   1   9
ATOM      8  C   LIG    1       -2.058  -0.085 -21.521  0.00  0.00    +0.058 C 
ATOM      9  C   LIG    1       -3.161   0.735 -20.902  0.00  0.00    +0.407 C 
ATOM     10  O   LIG    1       -3.146   1.944 -21.000  0.00  0.00    -0.490 OA
ENDBRANCH   1   9
BRANCH   3  11
ATOM     11  N   LIG    1       -6.509   0.734 -17.244  0.00  0.00    +0.069 N 
ATOM     12  O   LIG    1       -7.205   1.709 -17.409  0.00  0.00    -0.155 OA
ATOM     13  O   LIG    1       -6.328   0.301 -16.130  0.00  0.00    -0.247 OA
ENDBRANCH   3  11
BRANCH   6  14
ATOM     14  O   LIG    1       -6.164  -3.038 -20.306  0.00  0.00    -0.480 OA
ATOM     15  H   LIG    1       -6.283  -3.666 -19.582  0.00  0.00    +0.369 HD
ENDBRANCH   6  14
TORSDOF 3
ENDMDL
MODEL 4
REMARK VINA RESULT:      -5.5     10.311     12.150
REMARK  Name = CHEMBL169033
REMARK                            x       y       z     vdW  Elec       q    Type
REMARK                         _______ _______ _______ _____ _____    ______ ____
ROOT
ATOM      1  C   LIG    1       -3.371 -13.909 -18.733  0.00  0.00    -0.296 A 
ATOM      2  C   LIG    1       -3.198 -12.782 -19.543  0.00  0.00    +0.196 A 
ATOM      3  C   LIG    1       -3.597 -11.543 -19.094  0.00  0.00    -0.204 A 
ATOM      4  C   LIG    1       -4.172 -11.410 -17.836  0.00  0.00    +0.309 A 
ATOM      5  O   LIG    1       -4.564 -10.185 -17.398  0.00  0.00    -0.606 OA
ATOM      6  C   LIG    1       -4.348 -12.529 -17.022  0.00  0.00    -0.027 A 
ATOM      7  C   LIG    1       -3.956 -13.775 -17.467  0.00  0.00    +0.097 A 
ENDROOT
BRANCH   1   9
ATOM      8  C   LIG    1       -3.361 -15.708 -20.580  0.00  0.00    +0.058 C 
ATOM      9  C   LIG    1       -2.947 -15.232 -19.211  0.00  0.00    +0.407 C 
ATOM     10  O   LIG    1       -2.264 -15.942 -18.503  0.00  0.00    -0.490 OA
ENDBRANCH   1   9
BRANCH   3  11
ATOM     11  N   LIG    1       -3.412 -10.351 -19.951  0.00  0.00    +0.069 N 
ATOM     12  O   LIG    1       -2.629  -9.489 -19.627  0.00  0.00    -0.155 OA
ATOM     13  O   LIG    1       -4.045 -10.239 -20.976  0.00  0.00    -0.247 OA
ENDBRANCH   3  11
BRANCH   6  14
ATOM     14  O   LIG    1       -4.911 -12.393 -15.791  0.00  0.00    -0.480 OA
ATOM     15  H   LIG    1       -4.893 -11.490 -15.448  0.00  0.00    +0.369 HD
ENDBRANCH   6  14
TORSDOF 3
ENDMDL
MODEL 5
REMARK VINA RESULT:      -5.5      8.998     10.772
REMARK  Name = CHEMBL169033
REMARK                            x       y       z     vdW  Elec       q    Type
REMARK                         _______ _______ _______ _____ _____    ______ ____
ROOT
ATOM      1  C   LIG    1       -3.580 -11.677 -19.243  0.00  0.00    -0.296 A 
ATOM      2  C   LIG    1       -4.198 -10.490 -18.833  0.00  0.00    +0.196 A 
ATOM      3  C   LIG    1       -4.814 -10.425 -17.603  0.00  0.00    -0.204 A 
ATOM      4  C   LIG    1       -4.823 -11.534 -16.767  0.00  0.00    +0.309 A 
ATOM      5  O   LIG    1       -5.433 -11.464 -15.556  0.00  0.00    -0.606 OA
ATOM      6  C   LIG    1       -4.209 -12.721 -17.169  0.00  0.00    -0.027 A 
ATOM      7  C   LIG    1       -3.595 -12.797 -18.402  0.00  0.00    +0.097 A 
ENDROOT
BRANCH   1   9
ATOM      8  C   LIG    1       -2.846 -10.524 -21.429  0.00  0.00    +0.058 C 
ATOM      9  C   LIG    1       -2.923 -11.750 -20.555  0.00  0.00    +0.407 C 
ATOM     10  O   LIG    1       -2.442 -12.796 -20.935  0.00  0.00    -0.490 OA
ENDBRANCH   1   9
BRANCH   3  11
ATOM     11  N   LIG    1       -5.467  -9.169 -17.170  0.00  0.00    +0.069 N 
ATOM     12  O   LIG    1       -6.567  -9.201 -16.669  0.00  0.00    -0.155 OA
ATOM     13  O   LIG    1       -4.900  -8.111 -17.317  0.00  0.00    -0.247 OA
ENDBRANCH   3  11
BRANCH   6  14
ATOM     14  O   LIG    1       -4.221 -13.805 -16.347  0.00  0.00    -0.480 OA
ATOM     15  H   LIG    1       -3.524 -13.798 -15.678  0.00  0.00    +0.369 HD
ENDBRANCH   6  14
TORSDOF 3
ENDMDL
MODEL 6
REMARK VINA RESULT:      -5.3      9.208     11.183
REMARK  Name = CHEMBL169033
REMARK                            x       y       z     vdW  Elec       q    Type
REMARK                         _______ _______ _______ _____ _____    ______ ____
ROOT
ATOM      1  C   LIG    1       -3.357 -10.198 -19.150  0.00  0.00    -0.296 A 
ATOM      2  C   LIG    1       -3.276 -11.557 -18.830  0.00  0.00    +0.196 A 
ATOM      3  C   LIG    1       -3.977 -12.054 -17.754  0.00  0.00    -0.204 A 
ATOM      4  C   LIG    1       -4.766 -11.208 -16.985  0.00  0.00    +0.309 A 
ATOM      5  O   LIG    1       -5.455 -11.704 -15.925  0.00  0.00    -0.606 OA
ATOM      6  C   LIG    1       -4.852  -9.851 -17.297  0.00  0.00    -0.027 A 
ATOM      7  C   LIG    1       -4.148  -9.344 -18.371  0.00  0.00    +0.097 A 
ENDROOT
BRANCH   1   9
ATOM      8  C   LIG    1       -1.374  -8.830 -20.070  0.00  0.00    +0.058 C 
ATOM      9  C   LIG    1       -2.609  -9.665 -20.297  0.00  0.00    +0.407 C 
ATOM     10  O   LIG    1       -2.985  -9.896 -21.426  0.00  0.00    -0.490 OA
ENDBRANCH   1   9
BRANCH   3  11
ATOM     11  N   LIG    1       -3.892 -13.493 -17.418  0.00  0.00    +0.069 N 
ATOM     12  O   LIG    1       -3.889 -14.321 -18.299  0.00  0.00    -0.155 OA
ATOM     13  O   LIG    1       -3.824 -13.840 -16.262  0.00  0.00    -0.247 OA
ENDBRANCH   3  11
BRANCH   6  14
ATOM     14  O   LIG    1       -5.626  -9.027 -16.541  0.00  0.00    -0.480 OA
ATOM     15  H   LIG    1       -5.637  -9.251 -15.601  0.00  0.00    +0.369 HD
ENDBRANCH   6  14
TORSDOF 3
ENDMDL
MODEL 7
REMARK VINA RESULT:      -5.0      3.952      5.845
REMARK  Name = CHEMBL169033
REMARK                            x       y       z     vdW  Elec       q    Type
REMARK                         _______ _______ _______ _____ _____    ______ ____
ROOT
ATOM      1  C   LIG    1       -8.259  -5.512 -18.566  0.00  0.00    -0.296 A 
ATOM      2  C   LIG    1       -8.994  -5.705 -19.741  0.00  0.00    +0.196 A 
ATOM      3  C   LIG    1       -8.736  -4.929 -20.849  0.00  0.00    -0.204 A 
ATOM      4  C   LIG    1       -7.746  -3.955 -20.804  0.00  0.00    +0.309 A 
ATOM      5  O   LIG    1       -7.497  -3.193 -21.900  0.00  0.00    -0.606 OA
ATOM      6  C   LIG    1       -7.009  -3.757 -19.637  0.00  0.00    -0.027 A 
ATOM      7  C   LIG    1       -7.265  -4.526 -18.520  0.00  0.00    +0.097 A 
ENDROOT
BRANCH   1   9
ATOM      8  C   LIG    1       -7.893  -7.696 -17.246  0.00  0.00    +0.058 C 
ATOM      9  C   LIG    1       -8.532  -6.338 -17.382  0.00  0.00    +0.407 C 
ATOM     10  O   LIG    1       -9.273  -5.926 -16.514  0.00  0.00    -0.490 OA
ENDBRANCH   1   9
BRANCH   3  11
ATOM     11  N   LIG    1       -9.514  -5.135 -22.092  0.00  0.00    +0.069 N 
ATOM     12  O   LIG    1       -9.359  -6.143 -22.741  0.00  0.00    -0.155 OA
ATOM     13  O   LIG    1      -10.303  -4.295 -22.457  0.00  0.00    -0.247 OA
ENDBRANCH   3  11
BRANCH   6  14
ATOM     14  O   LIG    1       -6.041  -2.802 -19.598  0.00  0.00    -0.480 OA
ATOM     15  H   LIG    1       -5.189  -3.090 -19.952  0.00  0.00    +0.369 HD
ENDBRANCH   6  14
TORSDOF 3
ENDMDL
MODEL 8
REMARK VINA RESULT:      -4.9     13.600     14.534
REMARK  Name = CHEMBL169033
REMARK                            x       y       z     vdW  Elec       q    Type
REMARK                         _______ _______ _______ _____ _____    ______ ____
ROOT
ATOM      1  C   LIG    1        7.540  -2.295 -17.603  0.00  0.00    -0.296 A 
ATOM      2  C   LIG    1        7.576  -3.403 -18.457  0.00  0.00    +0.196 A 
ATOM      3  C   LIG    1        7.200  -4.643 -17.992  0.00  0.00    -0.204 A 
ATOM      4  C   LIG    1        6.784  -4.798 -16.676  0.00  0.00    +0.309 A 
ATOM      5  O   LIG    1        6.415  -6.024 -16.222  0.00  0.00    -0.606 OA
ATOM      6  C   LIG    1        6.745  -3.698 -15.818  0.00  0.00    -0.027 A 
ATOM      7  C   LIG    1        7.126  -2.453 -16.275  0.00  0.00    +0.097 A 
ENDROOT
BRANCH   1   9
ATOM      8  C   LIG    1        8.720  -0.038 -17.205  0.00  0.00    +0.058 C 
ATOM      9  C   LIG    1        7.941  -0.971 -18.097  0.00  0.00    +0.407 C 
ATOM     10  O   LIG    1        7.645  -0.628 -19.222  0.00  0.00    -0.490 OA
ENDBRANCH   1   9
BRANCH   3  11
ATOM     11  N   LIG    1        7.237  -5.814 -18.897  0.00  0.00    +0.069 N 
ATOM     12  O   LIG    1        8.240  -6.484 -18.976  0.00  0.00    -0.155 OA
ATOM     13  O   LIG    1        6.266  -6.099 -19.557  0.00  0.00    -0.247 OA
ENDBRANCH   3  11
BRANCH   6  14
ATOM     14  O   LIG    1        6.337  -3.855 -14.530  0.00  0.00    -0.480 OA
ATOM     15  H   LIG    1        5.600  -3.283 -14.278  0.00  0.00    +0.369 HD
ENDBRANCH   6  14
TORSDOF 3
ENDMDL
MODEL 9
REMARK VINA RESULT:      -4.9     10.420     13.056
REMARK  Name = CHEMBL169033
REMARK                            x       y       z     vdW  Elec       q    Type
REMARK                         _______ _______ _______ _____ _____    ______ ____
ROOT
ATOM      1  C   LIG    1       -3.481 -11.603 -19.348  0.00  0.00    -0.296 A 
ATOM      2  C   LIG    1       -3.103 -12.893 -19.733  0.00  0.00    +0.196 A 
ATOM      3  C   LIG    1       -3.311 -13.955 -18.881  0.00  0.00    -0.204 A 
ATOM      4  C   LIG    1       -3.897 -13.748 -17.639  0.00  0.00    +0.309 A 
ATOM      5  O   LIG    1       -4.100 -14.798 -16.803  0.00  0.00    -0.606 OA
ATOM      6  C   LIG    1       -4.278 -12.464 -17.247  0.00  0.00    -0.027 A 
ATOM      7  C   LIG    1       -4.067 -11.394 -18.093  0.00  0.00    +0.097 A 
ENDROOT
BRANCH   1   9
ATOM      8  C   LIG    1       -2.190  -9.453 -19.943  0.00  0.00    +0.058 C 
ATOM      9  C   LIG    1       -3.259 -10.468 -20.254  0.00  0.00    +0.407 C 
ATOM     10  O   LIG    1       -3.937 -10.349 -21.253  0.00  0.00    -0.490 OA
ENDBRANCH   1   9
BRANCH   3  11
ATOM     11  N   LIG    1       -2.911 -15.320 -19.290  0.00  0.00    +0.069 N 
ATOM     12  O   LIG    1       -1.952 -15.848 -18.776  0.00  0.00    -0.155 OA
ATOM     13  O   LIG    1       -3.542 -15.906 -20.138  0.00  0.00    -0.247 OA
ENDBRANCH   3  11
BRANCH   6  14
ATOM     14  O   LIG    1       -4.852 -12.266 -16.030  0.00  0.00    -0.480 OA
ATOM     15  H   LIG    1       -5.792 -12.487 -15.998  0.00  0.00    +0.369 HD
ENDBRANCH   6  14
TORSDOF 3
ENDMDL
