MODEL 1
REMARK VINA RESULT:      -6.5      0.000      0.000
REMARK  Name = CHEMBL1091981
REMARK                            x       y       z     vdW  Elec       q    Type
REMARK                         _______ _______ _______ _____ _____    ______ ____
ROOT
ATOM      1  C   LIG    1       -8.010  -3.652 -20.366  0.00  0.00    -0.177 A 
ATOM      2  C   LIG    1       -8.838  -4.702 -20.630  0.00  0.00    +0.028 A 
ATOM      3 CL   LIG    1       -9.434  -5.688 -19.331  0.00  0.00    +0.005 Cl
ATOM      4  C   LIG    1       -9.208  -4.985 -21.957  0.00  0.00    -0.084 A 
ATOM      5  C   LIG    1      -10.052  -6.026 -22.428  0.00  0.00    +0.135 A 
ATOM      6  C   LIG    1      -10.313  -6.164 -23.756  0.00  0.00    +0.095 A 
ATOM      7  C   LIG    1       -9.763  -5.294 -24.702  0.00  0.00    +0.192 A 
ATOM      8  C   LIG    1       -8.936  -4.268 -24.281  0.00  0.00    -0.013 A 
ATOM      9  C   LIG    1       -8.667  -4.120 -22.937  0.00  0.00    -0.091 A 
ATOM     10  S   LIG    1       -7.696  -2.975 -21.987  0.00  0.00    +0.221 S 
ENDROOT
BRANCH   8  11
ATOM     11  N   LIG    1       -8.343  -3.335 -25.265  0.00  0.00    +0.023 N 
ATOM     12  O   LIG    1       -8.737  -2.194 -25.330  0.00  0.00    -0.109 OA
ATOM     13  O   LIG    1       -7.466  -3.715 -26.005  0.00  0.00    -0.125 OA
ENDBRANCH   8  11
BRANCH   1  14
ATOM     14  C   LIG    1       -7.507  -3.190 -19.070  0.00  0.00    +0.548 C 
ATOM     15  O   LIG    1       -6.834  -3.930 -18.380  0.00  0.00    -0.448 OA
BRANCH  14  16
ATOM     16  O   LIG    1       -7.791  -1.943 -18.643  0.00  0.00    -0.342 OA
BRANCH  16  17
ATOM     17  C   LIG    1       -6.687  -1.121 -18.258  0.00  0.00    +0.398 C 
ATOM     18  C   LIG    1       -7.200   0.094 -17.483  0.00  0.00    +0.091 C 
BRANCH  17  19
ATOM     19  O   LIG    1       -5.991  -0.681 -19.426  0.00  0.00    -0.353 OA
BRANCH  19  20
ATOM     20  C   LIG    1       -4.657  -0.832 -19.433  0.00  0.00    +0.458 C 
ATOM     21  O   LIG    1       -4.174  -1.925 -19.611  0.00  0.00    -0.485 OA
BRANCH  20  22
ATOM     22  C   LIG    1       -3.762   0.361 -19.221  0.00  0.00    +0.099 C 
BRANCH  22  24
ATOM     23  C   LIG    1       -2.447   0.493 -21.342  0.00  0.00    +0.024 C 
ATOM     24  C   LIG    1       -3.593   1.116 -20.541  0.00  0.00    +0.030 C 
ENDBRANCH  22  24
ENDBRANCH  20  22
ENDBRANCH  19  20
ENDBRANCH  17  19
ENDBRANCH  16  17
ENDBRANCH  14  16
ENDBRANCH   1  14
BRANCH   6  25
ATOM     25  O   LIG    1      -11.126  -7.174 -24.171  0.00  0.00    -0.468 OA
ATOM     26  H   LIG    1      -10.842  -7.592 -24.995  0.00  0.00    +0.401 HD
ENDBRANCH   6  25
BRANCH   7  27
ATOM     27  O   LIG    1      -10.038  -5.454 -26.023  0.00  0.00    -0.467 OA
ATOM     28  H   LIG    1       -9.616  -4.798 -26.595  0.00  0.00    +0.412 HD
ENDBRANCH   7  27
TORSDOF 10
ENDMDL
MODEL 2
REMARK VINA RESULT:      -6.3     11.839     15.601
REMARK  Name = CHEMBL1091981
REMARK                            x       y       z     vdW  Elec       q    Type
REMARK                         _______ _______ _______ _____ _____    ______ ____
ROOT
ATOM      1  C   LIG    1        6.289  -7.264 -19.247  0.00  0.00    -0.177 A 
ATOM      2  C   LIG    1        6.899  -6.180 -19.804  0.00  0.00    +0.028 A 
ATOM      3 CL   LIG    1        7.318  -6.187 -21.488  0.00  0.00    +0.005 Cl
ATOM      4  C   LIG    1        7.189  -5.056 -19.010  0.00  0.00    -0.084 A 
ATOM      5  C   LIG    1        7.815  -3.843 -19.404  0.00  0.00    +0.135 A 
ATOM      6  C   LIG    1        8.024  -2.843 -18.505  0.00  0.00    +0.095 A 
ATOM      7  C   LIG    1        7.634  -2.970 -17.168  0.00  0.00    +0.192 A 
ATOM      8  C   LIG    1        7.021  -4.137 -16.748  0.00  0.00    -0.013 A 
ATOM      9  C   LIG    1        6.805  -5.156 -17.651  0.00  0.00    -0.091 A 
ATOM     10  S   LIG    1        6.070  -6.768 -17.547  0.00  0.00    +0.221 S 
ENDROOT
BRANCH   8  11
ATOM     11  N   LIG    1        6.601  -4.292 -15.337  0.00  0.00    +0.023 N 
ATOM     12  O   LIG    1        6.997  -5.232 -14.688  0.00  0.00    -0.109 OA
ATOM     13  O   LIG    1        5.862  -3.478 -14.834  0.00  0.00    -0.125 OA
ENDBRANCH   8  11
BRANCH   1  14
ATOM     14  C   LIG    1        5.903  -8.523 -19.888  0.00  0.00    +0.548 C 
ATOM     15  O   LIG    1        6.424  -9.565 -19.542  0.00  0.00    -0.448 OA
BRANCH  14  16
ATOM     16  O   LIG    1        4.971  -8.526 -20.862  0.00  0.00    -0.342 OA
BRANCH  16  17
ATOM     17  C   LIG    1        3.614  -8.317 -20.464  0.00  0.00    +0.398 C 
ATOM     18  C   LIG    1        3.030  -9.627 -19.934  0.00  0.00    +0.091 C 
BRANCH  17  19
ATOM     19  O   LIG    1        2.850  -7.875 -21.589  0.00  0.00    -0.353 OA
BRANCH  19  20
ATOM     20  C   LIG    1        1.719  -7.201 -21.330  0.00  0.00    +0.458 C 
ATOM     21  O   LIG    1        1.748  -6.225 -20.617  0.00  0.00    -0.485 OA
BRANCH  20  22
ATOM     22  C   LIG    1        0.414  -7.659 -21.927  0.00  0.00    +0.099 C 
BRANCH  22  24
ATOM     23  C   LIG    1       -0.598  -9.302 -20.339  0.00  0.00    +0.024 C 
ATOM     24  C   LIG    1       -0.619  -7.847 -20.813  0.00  0.00    +0.030 C 
ENDBRANCH  22  24
ENDBRANCH  20  22
ENDBRANCH  19  20
ENDBRANCH  17  19
ENDBRANCH  16  17
ENDBRANCH  14  16
ENDBRANCH   1  14
BRANCH   6  25
ATOM     25  O   LIG    1        8.627  -1.695 -18.918  0.00  0.00    -0.468 OA
ATOM     26  H   LIG    1        9.407  -1.454 -18.400  0.00  0.00    +0.401 HD
ENDBRANCH   6  25
BRANCH   7  27
ATOM     27  O   LIG    1        7.856  -1.957 -16.290  0.00  0.00    -0.467 OA
ATOM     28  H   LIG    1        7.673  -2.188 -15.368  0.00  0.00    +0.412 HD
ENDBRANCH   7  27
TORSDOF 10
ENDMDL
MODEL 3
REMARK VINA RESULT:      -6.2      9.243     10.716
REMARK  Name = CHEMBL1091981
REMARK                            x       y       z     vdW  Elec       q    Type
REMARK                         _______ _______ _______ _____ _____    ______ ____
ROOT
ATOM      1  C   LIG    1       -2.958 -11.765 -21.491  0.00  0.00    -0.177 A 
ATOM      2  C   LIG    1       -2.966 -12.832 -20.644  0.00  0.00    +0.028 A 
ATOM      3 CL   LIG    1       -2.337 -14.363 -21.167  0.00  0.00    +0.005 Cl
ATOM      4  C   LIG    1       -3.485 -12.690 -19.345  0.00  0.00    -0.084 A 
ATOM      5  C   LIG    1       -3.580 -13.676 -18.327  0.00  0.00    +0.135 A 
ATOM      6  C   LIG    1       -4.114 -13.375 -17.112  0.00  0.00    +0.095 A 
ATOM      7  C   LIG    1       -4.588 -12.091 -16.822  0.00  0.00    +0.192 A 
ATOM      8  C   LIG    1       -4.512 -11.105 -17.788  0.00  0.00    -0.013 A 
ATOM      9  C   LIG    1       -3.972 -11.401 -19.022  0.00  0.00    -0.091 A 
ATOM     10  S   LIG    1       -3.684 -10.467 -20.504  0.00  0.00    +0.221 S 
ENDROOT
BRANCH   8  11
ATOM     11  N   LIG    1       -5.008  -9.740 -17.501  0.00  0.00    +0.023 N 
ATOM     12  O   LIG    1       -4.384  -8.778 -17.884  0.00  0.00    -0.109 OA
ATOM     13  O   LIG    1       -6.037  -9.588 -16.885  0.00  0.00    -0.125 OA
ENDBRANCH   8  11
BRANCH   1  14
ATOM     14  C   LIG    1       -2.469 -11.698 -22.870  0.00  0.00    +0.548 C 
ATOM     15  O   LIG    1       -3.224 -11.930 -23.794  0.00  0.00    -0.448 OA
BRANCH  14  16
ATOM     16  O   LIG    1       -1.182 -11.380 -23.115  0.00  0.00    -0.342 OA
BRANCH  16  17
ATOM     17  C   LIG    1       -0.876  -9.994 -23.287  0.00  0.00    +0.398 C 
ATOM     18  C   LIG    1       -0.495  -9.733 -24.745  0.00  0.00    +0.091 C 
BRANCH  17  19
ATOM     19  O   LIG    1        0.217  -9.638 -22.438  0.00  0.00    -0.353 OA
BRANCH  19  20
ATOM     20  C   LIG    1       -0.087  -9.093 -21.249  0.00  0.00    +0.458 C 
ATOM     21  O   LIG    1       -0.074  -9.775 -20.252  0.00  0.00    -0.485 OA
BRANCH  20  22
ATOM     22  C   LIG    1       -0.445  -7.633 -21.159  0.00  0.00    +0.099 C 
BRANCH  22  24
ATOM     23  C   LIG    1       -0.064  -6.215 -23.182  0.00  0.00    +0.024 C 
ATOM     24  C   LIG    1        0.587  -6.805 -21.929  0.00  0.00    +0.030 C 
ENDBRANCH  22  24
ENDBRANCH  20  22
ENDBRANCH  19  20
ENDBRANCH  17  19
ENDBRANCH  16  17
ENDBRANCH  14  16
ENDBRANCH   1  14
BRANCH   6  25
ATOM     25  O   LIG    1       -4.189 -14.345 -16.160  0.00  0.00    -0.468 OA
ATOM     26  H   LIG    1       -4.631 -15.152 -16.457  0.00  0.00    +0.401 HD
ENDBRANCH   6  25
BRANCH   7  27
ATOM     27  O   LIG    1       -5.117 -11.816 -15.601  0.00  0.00    -0.467 OA
ATOM     28  H   LIG    1       -6.003 -12.183 -15.464  0.00  0.00    +0.412 HD
ENDBRANCH   7  27
TORSDOF 10
ENDMDL
MODEL 4
REMARK VINA RESULT:      -5.8      8.960     11.793
REMARK  Name = CHEMBL1091981
REMARK                            x       y       z     vdW  Elec       q    Type
REMARK                         _______ _______ _______ _____ _____    ______ ____
ROOT
ATOM      1  C   LIG    1       -2.950 -11.416 -21.357  0.00  0.00    -0.177 A 
ATOM      2  C   LIG    1       -2.943 -12.527 -20.568  0.00  0.00    +0.028 A 
ATOM      3 CL   LIG    1       -2.261 -14.009 -21.160  0.00  0.00    +0.005 Cl
ATOM      4  C   LIG    1       -3.490 -12.470 -19.274  0.00  0.00    -0.084 A 
ATOM      5  C   LIG    1       -3.576 -13.512 -18.312  0.00  0.00    +0.135 A 
ATOM      6  C   LIG    1       -4.140 -13.291 -17.094  0.00  0.00    +0.095 A 
ATOM      7  C   LIG    1       -4.655 -12.039 -16.745  0.00  0.00    +0.192 A 
ATOM      8  C   LIG    1       -4.589 -10.999 -17.655  0.00  0.00    -0.013 A 
ATOM      9  C   LIG    1       -4.019 -11.214 -18.892  0.00  0.00    -0.091 A 
ATOM     10  S   LIG    1       -3.730 -10.194 -20.316  0.00  0.00    +0.221 S 
ENDROOT
BRANCH   8  11
ATOM     11  N   LIG    1       -5.128  -9.666 -17.306  0.00  0.00    +0.023 N 
ATOM     12  O   LIG    1       -6.163  -9.576 -16.687  0.00  0.00    -0.109 OA
ATOM     13  O   LIG    1       -4.533  -8.668 -17.638  0.00  0.00    -0.125 OA
ENDBRANCH   8  11
BRANCH   1  14
ATOM     14  C   LIG    1       -2.438 -11.261 -22.720  0.00  0.00    +0.548 C 
ATOM     15  O   LIG    1       -1.241 -11.166 -22.913  0.00  0.00    -0.448 OA
BRANCH  14  16
ATOM     16  O   LIG    1       -3.294 -11.221 -23.762  0.00  0.00    -0.342 OA
BRANCH  16  17
ATOM     17  C   LIG    1       -3.952 -12.441 -24.108  0.00  0.00    +0.398 C 
ATOM     18  C   LIG    1       -3.454 -12.921 -25.473  0.00  0.00    +0.091 C 
BRANCH  17  19
ATOM     19  O   LIG    1       -5.363 -12.222 -24.166  0.00  0.00    -0.353 OA
BRANCH  19  20
ATOM     20  C   LIG    1       -6.135 -13.014 -23.405  0.00  0.00    +0.458 C 
ATOM     21  O   LIG    1       -5.659 -13.588 -22.455  0.00  0.00    -0.485 OA
BRANCH  20  22
ATOM     22  C   LIG    1       -7.594 -13.188 -23.737  0.00  0.00    +0.099 C 
BRANCH  22  24
ATOM     23  C   LIG    1       -9.578 -11.884 -22.955  0.00  0.00    +0.024 C 
ATOM     24  C   LIG    1       -8.443 -12.814 -22.519  0.00  0.00    +0.030 C 
ENDBRANCH  22  24
ENDBRANCH  20  22
ENDBRANCH  19  20
ENDBRANCH  17  19
ENDBRANCH  16  17
ENDBRANCH  14  16
ENDBRANCH   1  14
BRANCH   6  25
ATOM     25  O   LIG    1       -4.205 -14.313 -16.198  0.00  0.00    -0.468 OA
ATOM     26  H   LIG    1       -4.711 -14.104 -15.401  0.00  0.00    +0.401 HD
ENDBRANCH   6  25
BRANCH   7  27
ATOM     27  O   LIG    1       -5.214 -11.845 -15.522  0.00  0.00    -0.467 OA
ATOM     28  H   LIG    1       -4.588 -11.551 -14.845  0.00  0.00    +0.412 HD
ENDBRANCH   7  27
TORSDOF 10
ENDMDL
MODEL 5
REMARK VINA RESULT:      -5.7      8.102      9.931
REMARK  Name = CHEMBL1091981
REMARK                            x       y       z     vdW  Elec       q    Type
REMARK                         _______ _______ _______ _____ _____    ______ ____
ROOT
ATOM      1  C   LIG    1       -2.242 -10.662 -21.240  0.00  0.00    -0.177 A 
ATOM      2  C   LIG    1       -2.732  -9.873 -22.237  0.00  0.00    +0.028 A 
ATOM      3 CL   LIG    1       -4.228 -10.284 -23.015  0.00  0.00    +0.005 Cl
ATOM      4  C   LIG    1       -2.023  -8.725 -22.632  0.00  0.00    -0.084 A 
ATOM      5  C   LIG    1       -2.368  -7.787 -23.642  0.00  0.00    +0.135 A 
ATOM      6  C   LIG    1       -1.566  -6.720 -23.905  0.00  0.00    +0.095 A 
ATOM      7  C   LIG    1       -0.379  -6.507 -23.197  0.00  0.00    +0.192 A 
ATOM      8  C   LIG    1       -0.010  -7.399 -22.206  0.00  0.00    -0.013 A 
ATOM      9  C   LIG    1       -0.817  -8.484 -21.933  0.00  0.00    -0.091 A 
ATOM     10  S   LIG    1       -0.732  -9.830 -20.779  0.00  0.00    +0.221 S 
ENDROOT
BRANCH   8  11
ATOM     11  N   LIG    1        1.242  -7.193 -21.445  0.00  0.00    +0.023 N 
ATOM     12  O   LIG    1        1.393  -6.187 -20.791  0.00  0.00    -0.109 OA
ATOM     13  O   LIG    1        2.114  -8.030 -21.477  0.00  0.00    -0.125 OA
ENDBRANCH   8  11
BRANCH   1  14
ATOM     14  C   LIG    1       -2.815 -11.889 -20.681  0.00  0.00    +0.548 C 
ATOM     15  O   LIG    1       -2.291 -12.962 -20.906  0.00  0.00    -0.448 OA
BRANCH  14  16
ATOM     16  O   LIG    1       -3.925 -11.827 -19.917  0.00  0.00    -0.342 OA
BRANCH  16  17
ATOM     17  C   LIG    1       -3.743 -11.550 -18.527  0.00  0.00    +0.398 C 
ATOM     18  C   LIG    1       -3.818 -12.854 -17.732  0.00  0.00    +0.091 C 
BRANCH  17  19
ATOM     19  O   LIG    1       -4.769 -10.659 -18.081  0.00  0.00    -0.353 OA
BRANCH  19  20
ATOM     20  C   LIG    1       -4.469  -9.352 -18.048  0.00  0.00    +0.458 C 
ATOM     21  O   LIG    1       -3.432  -8.958 -18.529  0.00  0.00    -0.485 OA
BRANCH  20  22
ATOM     22  C   LIG    1       -5.423  -8.375 -17.413  0.00  0.00    +0.099 C 
BRANCH  22  24
ATOM     23  C   LIG    1       -7.837  -8.386 -16.765  0.00  0.00    +0.024 C 
ATOM     24  C   LIG    1       -6.511  -9.141 -16.657  0.00  0.00    +0.030 C 
ENDBRANCH  22  24
ENDBRANCH  20  22
ENDBRANCH  19  20
ENDBRANCH  17  19
ENDBRANCH  16  17
ENDBRANCH  14  16
ENDBRANCH   1  14
BRANCH   6  25
ATOM     25  O   LIG    1       -1.928  -5.841 -24.879  0.00  0.00    -0.468 OA
ATOM     26  H   LIG    1       -1.258  -5.173 -25.074  0.00  0.00    +0.401 HD
ENDBRANCH   6  25
BRANCH   7  27
ATOM     27  O   LIG    1        0.405  -5.433 -23.480  0.00  0.00    -0.467 OA
ATOM     28  H   LIG    1        1.222  -5.655 -23.948  0.00  0.00    +0.412 HD
ENDBRANCH   7  27
TORSDOF 10
ENDMDL
MODEL 6
REMARK VINA RESULT:      -5.6      8.899     10.919
REMARK  Name = CHEMBL1091981
REMARK                            x       y       z     vdW  Elec       q    Type
REMARK                         _______ _______ _______ _____ _____    ______ ____
ROOT
ATOM      1  C   LIG    1       -1.777  -9.747 -21.329  0.00  0.00    -0.177 A 
ATOM      2  C   LIG    1       -2.271  -9.068 -22.403  0.00  0.00    +0.028 A 
ATOM      3 CL   LIG    1       -3.750  -9.582 -23.150  0.00  0.00    +0.005 Cl
ATOM      4  C   LIG    1       -1.579  -7.950 -22.902  0.00  0.00    -0.084 A 
ATOM      5  C   LIG    1       -1.931  -7.123 -24.002  0.00  0.00    +0.135 A 
ATOM      6  C   LIG    1       -1.147  -6.070 -24.361  0.00  0.00    +0.095 A 
ATOM      7  C   LIG    1        0.029  -5.766 -23.666  0.00  0.00    +0.192 A 
ATOM      8  C   LIG    1        0.404  -6.550 -22.590  0.00  0.00    -0.013 A 
ATOM      9  C   LIG    1       -0.385  -7.618 -22.219  0.00  0.00    -0.091 A 
ATOM     10  S   LIG    1       -0.288  -8.844 -20.938  0.00  0.00    +0.221 S 
ENDROOT
BRANCH   8  11
ATOM     11  N   LIG    1        1.644  -6.246 -21.842  0.00  0.00    +0.023 N 
ATOM     12  O   LIG    1        2.695  -6.146 -22.429  0.00  0.00    -0.109 OA
ATOM     13  O   LIG    1        1.604  -6.096 -20.642  0.00  0.00    -0.125 OA
ENDBRANCH   8  11
BRANCH   1  14
ATOM     14  C   LIG    1       -2.333 -10.924 -20.658  0.00  0.00    +0.548 C 
ATOM     15  O   LIG    1       -2.756 -11.855 -21.315  0.00  0.00    -0.448 OA
BRANCH  14  16
ATOM     16  O   LIG    1       -2.377 -10.974 -19.311  0.00  0.00    -0.342 OA
BRANCH  16  17
ATOM     17  C   LIG    1       -3.663 -11.135 -18.709  0.00  0.00    +0.398 C 
ATOM     18  C   LIG    1       -4.304  -9.763 -18.499  0.00  0.00    +0.091 C 
BRANCH  17  19
ATOM     19  O   LIG    1       -3.520 -11.792 -17.447  0.00  0.00    -0.353 OA
BRANCH  19  20
ATOM     20  C   LIG    1       -3.695 -13.123 -17.430  0.00  0.00    +0.458 C 
ATOM     21  O   LIG    1       -3.883 -13.693 -16.381  0.00  0.00    -0.485 OA
BRANCH  20  22
ATOM     22  C   LIG    1       -3.658 -13.905 -18.717  0.00  0.00    +0.099 C 
BRANCH  22  24
ATOM     23  C   LIG    1       -3.179 -16.209 -19.559  0.00  0.00    +0.024 C 
ATOM     24  C   LIG    1       -2.777 -15.144 -18.536  0.00  0.00    +0.030 C 
ENDBRANCH  22  24
ENDBRANCH  20  22
ENDBRANCH  19  20
ENDBRANCH  17  19
ENDBRANCH  16  17
ENDBRANCH  14  16
ENDBRANCH   1  14
BRANCH   6  25
ATOM     25  O   LIG    1       -1.514  -5.299 -25.420  0.00  0.00    -0.468 OA
ATOM     26  H   LIG    1       -1.345  -5.706 -26.280  0.00  0.00    +0.401 HD
ENDBRANCH   6  25
BRANCH   7  27
ATOM     27  O   LIG    1        0.795  -4.710 -24.046  0.00  0.00    -0.467 OA
ATOM     28  H   LIG    1        0.516  -4.300 -24.877  0.00  0.00    +0.412 HD
ENDBRANCH   7  27
TORSDOF 10
ENDMDL
MODEL 7
REMARK VINA RESULT:      -5.6     11.904     14.657
REMARK  Name = CHEMBL1091981
REMARK                            x       y       z     vdW  Elec       q    Type
REMARK                         _______ _______ _______ _____ _____    ______ ____
ROOT
ATOM      1  C   LIG    1       -2.518 -14.961 -20.922  0.00  0.00    -0.177 A 
ATOM      2  C   LIG    1       -3.016 -15.052 -19.657  0.00  0.00    +0.028 A 
ATOM      3 CL   LIG    1       -3.165 -16.602 -18.891  0.00  0.00    +0.005 Cl
ATOM      4  C   LIG    1       -3.409 -13.887 -18.975  0.00  0.00    -0.084 A 
ATOM      5  C   LIG    1       -3.947 -13.779 -17.664  0.00  0.00    +0.135 A 
ATOM      6  C   LIG    1       -4.279 -12.566 -17.145  0.00  0.00    +0.095 A 
ATOM      7  C   LIG    1       -4.107 -11.387 -17.878  0.00  0.00    +0.192 A 
ATOM      8  C   LIG    1       -3.586 -11.453 -19.157  0.00  0.00    -0.013 A 
ATOM      9  C   LIG    1       -3.246 -12.677 -19.691  0.00  0.00    -0.091 A 
ATOM     10  S   LIG    1       -2.562 -13.205 -21.242  0.00  0.00    +0.221 S 
ENDROOT
BRANCH   8  11
ATOM     11  N   LIG    1       -3.395 -10.217 -19.949  0.00  0.00    +0.023 N 
ATOM     12  O   LIG    1       -2.636  -9.361 -19.560  0.00  0.00    -0.109 OA
ATOM     13  O   LIG    1       -3.999 -10.065 -20.986  0.00  0.00    -0.125 OA
ENDBRANCH   8  11
BRANCH   1  14
ATOM     14  C   LIG    1       -2.056 -16.037 -21.801  0.00  0.00    +0.548 C 
ATOM     15  O   LIG    1       -0.887 -16.371 -21.791  0.00  0.00    -0.448 OA
BRANCH  14  16
ATOM     16  O   LIG    1       -2.926 -16.657 -22.624  0.00  0.00    -0.342 OA
BRANCH  16  17
ATOM     17  C   LIG    1       -3.117 -18.060 -22.429  0.00  0.00    +0.398 C 
ATOM     18  C   LIG    1       -3.355 -18.736 -23.781  0.00  0.00    +0.091 C 
BRANCH  17  19
ATOM     19  O   LIG    1       -4.250 -18.274 -21.584  0.00  0.00    -0.353 OA
BRANCH  19  20
ATOM     20  C   LIG    1       -4.237 -19.374 -20.815  0.00  0.00    +0.458 C 
ATOM     21  O   LIG    1       -3.189 -19.808 -20.399  0.00  0.00    -0.485 OA
BRANCH  20  22
ATOM     22  C   LIG    1       -5.529 -20.068 -20.470  0.00  0.00    +0.099 C 
BRANCH  22  24
ATOM     23  C   LIG    1       -7.041 -20.109 -22.460  0.00  0.00    +0.024 C 
ATOM     24  C   LIG    1       -5.998 -20.900 -21.667  0.00  0.00    +0.030 C 
ENDBRANCH  22  24
ENDBRANCH  20  22
ENDBRANCH  19  20
ENDBRANCH  17  19
ENDBRANCH  16  17
ENDBRANCH  14  16
ENDBRANCH   1  14
BRANCH   6  25
ATOM     25  O   LIG    1       -4.792 -12.500 -15.886  0.00  0.00    -0.468 OA
ATOM     26  H   LIG    1       -4.981 -13.363 -15.494  0.00  0.00    +0.401 HD
ENDBRANCH   6  25
BRANCH   7  27
ATOM     27  O   LIG    1       -4.448 -10.188 -17.336  0.00  0.00    -0.467 OA
ATOM     28  H   LIG    1       -5.349  -9.904 -17.545  0.00  0.00    +0.412 HD
ENDBRANCH   7  27
TORSDOF 10
ENDMDL
MODEL 8
REMARK VINA RESULT:      -5.6     11.939     15.485
REMARK  Name = CHEMBL1091981
REMARK                            x       y       z     vdW  Elec       q    Type
REMARK                         _______ _______ _______ _____ _____    ______ ____
ROOT
ATOM      1  C   LIG    1        6.614  -7.148 -20.384  0.00  0.00    -0.177 A 
ATOM      2  C   LIG    1        6.466  -7.267 -19.035  0.00  0.00    +0.028 A 
ATOM      3 CL   LIG    1        5.937  -8.771 -18.347  0.00  0.00    +0.005 Cl
ATOM      4  C   LIG    1        6.743  -6.169 -18.201  0.00  0.00    -0.084 A 
ATOM      5  C   LIG    1        6.648  -6.098 -16.785  0.00  0.00    +0.135 A 
ATOM      6  C   LIG    1        6.954  -4.950 -16.123  0.00  0.00    +0.095 A 
ATOM      7  C   LIG    1        7.370  -3.803 -16.806  0.00  0.00    +0.192 A 
ATOM      8  C   LIG    1        7.475  -3.834 -18.185  0.00  0.00    -0.013 A 
ATOM      9  C   LIG    1        7.166  -4.993 -18.864  0.00  0.00    -0.091 A 
ATOM     10  S   LIG    1        7.168  -5.463 -20.577  0.00  0.00    +0.221 S 
ENDROOT
BRANCH   8  11
ATOM     11  N   LIG    1        7.913  -2.631 -18.927  0.00  0.00    +0.023 N 
ATOM     12  O   LIG    1        7.172  -1.682 -19.033  0.00  0.00    -0.109 OA
ATOM     13  O   LIG    1        9.013  -2.597 -19.427  0.00  0.00    -0.125 OA
ENDBRANCH   8  11
BRANCH   1  14
ATOM     14  C   LIG    1        6.382  -8.157 -21.420  0.00  0.00    +0.548 C 
ATOM     15  O   LIG    1        7.222  -9.008 -21.639  0.00  0.00    -0.448 OA
BRANCH  14  16
ATOM     16  O   LIG    1        5.238  -8.140 -22.134  0.00  0.00    -0.342 OA
BRANCH  16  17
ATOM     17  C   LIG    1        4.039  -8.502 -21.446  0.00  0.00    +0.398 C 
ATOM     18  C   LIG    1        3.838 -10.016 -21.531  0.00  0.00    +0.091 C 
BRANCH  17  19
ATOM     19  O   LIG    1        2.925  -7.839 -22.049  0.00  0.00    -0.353 OA
BRANCH  19  20
ATOM     20  C   LIG    1        2.097  -7.171 -21.230  0.00  0.00    +0.458 C 
ATOM     21  O   LIG    1        2.547  -6.403 -20.413  0.00  0.00    -0.485 OA
BRANCH  20  22
ATOM     22  C   LIG    1        0.609  -7.379 -21.329  0.00  0.00    +0.099 C 
BRANCH  22  24
ATOM     23  C   LIG    1       -1.249  -8.545 -20.131  0.00  0.00    +0.024 C 
ATOM     24  C   LIG    1        0.217  -8.643 -20.560  0.00  0.00    +0.030 C 
ENDBRANCH  22  24
ENDBRANCH  20  22
ENDBRANCH  19  20
ENDBRANCH  17  19
ENDBRANCH  16  17
ENDBRANCH  14  16
ENDBRANCH   1  14
BRANCH   6  25
ATOM     25  O   LIG    1        6.851  -4.918 -14.766  0.00  0.00    -0.468 OA
ATOM     26  H   LIG    1        7.380  -4.225 -14.349  0.00  0.00    +0.401 HD
ENDBRANCH   6  25
BRANCH   7  27
ATOM     27  O   LIG    1        7.669  -2.668 -16.121  0.00  0.00    -0.467 OA
ATOM     28  H   LIG    1        7.536  -2.739 -15.165  0.00  0.00    +0.412 HD
ENDBRANCH   7  27
TORSDOF 10
ENDMDL
MODEL 9
REMARK VINA RESULT:      -5.5      9.579     12.486
REMARK  Name = CHEMBL1091981
REMARK                            x       y       z     vdW  Elec       q    Type
REMARK                         _______ _______ _______ _____ _____    ______ ____
ROOT
ATOM      1  C   LIG    1       -2.922 -13.908 -21.893  0.00  0.00    -0.177 A 
ATOM      2  C   LIG    1       -3.191 -14.521 -20.706  0.00  0.00    +0.028 A 
ATOM      3 CL   LIG    1       -3.213 -16.253 -20.607  0.00  0.00    +0.005 Cl
ATOM      4  C   LIG    1       -3.449 -13.745 -19.562  0.00  0.00    -0.084 A 
ATOM      5  C   LIG    1       -3.748 -14.196 -18.248  0.00  0.00    +0.135 A 
ATOM      6  C   LIG    1       -3.975 -13.309 -17.242  0.00  0.00    +0.095 A 
ATOM      7  C   LIG    1       -3.926 -11.928 -17.462  0.00  0.00    +0.192 A 
ATOM      8  C   LIG    1       -3.639 -11.452 -18.728  0.00  0.00    -0.013 A 
ATOM      9  C   LIG    1       -3.407 -12.344 -19.753  0.00  0.00    -0.091 A 
ATOM     10  S   LIG    1       -3.009 -12.175 -21.476  0.00  0.00    +0.221 S 
ENDROOT
BRANCH   8  11
ATOM     11  N   LIG    1       -3.582  -9.995 -18.982  0.00  0.00    +0.023 N 
ATOM     12  O   LIG    1       -4.473  -9.278 -18.591  0.00  0.00    -0.109 OA
ATOM     13  O   LIG    1       -2.644  -9.522 -19.581  0.00  0.00    -0.125 OA
ENDBRANCH   8  11
BRANCH   1  14
ATOM     14  C   LIG    1       -2.629 -14.520 -23.191  0.00  0.00    +0.548 C 
ATOM     15  O   LIG    1       -1.504 -14.909 -23.439  0.00  0.00    -0.448 OA
BRANCH  14  16
ATOM     16  O   LIG    1       -3.606 -14.652 -24.111  0.00  0.00    -0.342 OA
BRANCH  16  17
ATOM     17  C   LIG    1       -4.954 -14.582 -23.642  0.00  0.00    +0.398 C 
ATOM     18  C   LIG    1       -5.607 -15.961 -23.756  0.00  0.00    +0.091 C 
BRANCH  17  19
ATOM     19  O   LIG    1       -5.685 -13.641 -24.431  0.00  0.00    -0.353 OA
BRANCH  19  20
ATOM     20  C   LIG    1       -6.151 -12.551 -23.803  0.00  0.00    +0.458 C 
ATOM     21  O   LIG    1       -5.822 -11.451 -24.179  0.00  0.00    -0.485 OA
BRANCH  20  22
ATOM     22  C   LIG    1       -7.084 -12.698 -22.629  0.00  0.00    +0.099 C 
BRANCH  22  24
ATOM     23  C   LIG    1       -9.478 -12.890 -21.938  0.00  0.00    +0.024 C 
ATOM     24  C   LIG    1       -8.523 -12.823 -23.132  0.00  0.00    +0.030 C 
ENDBRANCH  22  24
ENDBRANCH  20  22
ENDBRANCH  19  20
ENDBRANCH  17  19
ENDBRANCH  16  17
ENDBRANCH  14  16
ENDBRANCH   1  14
BRANCH   6  25
ATOM     25  O   LIG    1       -4.258 -13.776 -15.995  0.00  0.00    -0.468 OA
ATOM     26  H   LIG    1       -4.430 -13.081 -15.345  0.00  0.00    +0.401 HD
ENDBRANCH   6  25
BRANCH   7  27
ATOM     27  O   LIG    1       -4.159 -11.063 -16.440  0.00  0.00    -0.467 OA
ATOM     28  H   LIG    1       -3.914 -10.147 -16.637  0.00  0.00    +0.412 HD
ENDBRANCH   7  27
TORSDOF 10
ENDMDL
