MODEL 1
REMARK VINA RESULT:      -6.4      0.000      0.000
REMARK  Name = CHEMBL1089537
REMARK                            x       y       z     vdW  Elec       q    Type
REMARK                         _______ _______ _______ _____ _____    ______ ____
ROOT
ATOM      1  C   LIG    1        6.012  -7.447 -19.062  0.00  0.00    -0.179 A 
ATOM      2  C   LIG    1        6.653  -6.417 -19.683  0.00  0.00    +0.030 A 
ATOM      3 CL   LIG    1        7.014  -6.514 -21.379  0.00  0.00    +0.005 Cl
ATOM      4  C   LIG    1        7.021  -5.275 -18.949  0.00  0.00    -0.085 A 
ATOM      5  C   LIG    1        7.688  -4.112 -19.414  0.00  0.00    +0.136 A 
ATOM      6  C   LIG    1        7.974  -3.087 -18.567  0.00  0.00    +0.096 A 
ATOM      7  C   LIG    1        7.624  -3.140 -17.214  0.00  0.00    +0.193 A 
ATOM      8  C   LIG    1        6.972  -4.259 -16.724  0.00  0.00    -0.013 A 
ATOM      9  C   LIG    1        6.679  -5.301 -17.576  0.00  0.00    -0.090 A 
ATOM     10  S   LIG    1        5.873  -6.871 -17.379  0.00  0.00    +0.218 S 
ENDROOT
BRANCH   8  11
ATOM     11  N   LIG    1        6.593  -4.335 -15.296  0.00  0.00    +0.022 N 
ATOM     12  O   LIG    1        5.905  -3.469 -14.806  0.00  0.00    -0.109 OA
ATOM     13  O   LIG    1        6.970  -5.262 -14.619  0.00  0.00    -0.124 OA
ENDBRANCH   8  11
BRANCH   1  14
ATOM     14  C   LIG    1        5.546  -8.711 -19.636  0.00  0.00    +0.549 C 
ATOM     15  O   LIG    1        6.346  -9.581 -19.921  0.00  0.00    -0.446 OA
BRANCH  14  16
ATOM     16  O   LIG    1        4.229  -8.910 -19.850  0.00  0.00    -0.346 OA
BRANCH  16  17
ATOM     17  C   LIG    1        3.521  -7.880 -20.541  0.00  0.00    +0.493 C 
BRANCH  17  18
ATOM     18  O   LIG    1        2.136  -8.223 -20.622  0.00  0.00    -0.353 OA
BRANCH  18  19
ATOM     19  C   LIG    1        1.275  -7.223 -20.869  0.00  0.00    +0.462 C 
ATOM     20  O   LIG    1        1.647  -6.075 -20.803  0.00  0.00    -0.488 OA
BRANCH  19  22
ATOM     21  C   LIG    1       -0.217  -8.082 -22.654  0.00  0.00    +0.065 C 
ATOM     22  C   LIG    1       -0.156  -7.532 -21.227  0.00  0.00    +0.024 C 
ATOM     23  C   LIG    1       -0.711  -8.575 -20.254  0.00  0.00    +0.061 C 
ENDBRANCH  19  22
ENDBRANCH  18  19
ENDBRANCH  17  18
ENDBRANCH  16  17
ENDBRANCH  14  16
ENDBRANCH   1  14
BRANCH   6  24
ATOM     24  O   LIG    1        8.616  -1.987 -19.046  0.00  0.00    -0.468 OA
ATOM     25  H   LIG    1        8.887  -1.360 -18.362  0.00  0.00    +0.401 HD
ENDBRANCH   6  24
BRANCH   7  26
ATOM     26  O   LIG    1        7.922  -2.103 -16.387  0.00  0.00    -0.467 OA
ATOM     27  H   LIG    1        7.592  -1.248 -16.695  0.00  0.00    +0.412 HD
ENDBRANCH   7  26
TORSDOF 9
ENDMDL
MODEL 2
REMARK VINA RESULT:      -6.4      7.582     11.218
REMARK  Name = CHEMBL1089537
REMARK                            x       y       z     vdW  Elec       q    Type
REMARK                         _______ _______ _______ _____ _____    ______ ____
ROOT
ATOM      1  C   LIG    1       -3.042 -11.865 -21.543  0.00  0.00    -0.179 A 
ATOM      2  C   LIG    1       -3.026 -12.925 -20.687  0.00  0.00    +0.030 A 
ATOM      3 CL   LIG    1       -2.404 -14.458 -21.212  0.00  0.00    +0.005 Cl
ATOM      4  C   LIG    1       -3.517 -12.774 -19.377  0.00  0.00    -0.085 A 
ATOM      5  C   LIG    1       -3.584 -13.752 -18.349  0.00  0.00    +0.136 A 
ATOM      6  C   LIG    1       -4.092 -13.442 -17.126  0.00  0.00    +0.096 A 
ATOM      7  C   LIG    1       -4.563 -12.158 -16.835  0.00  0.00    +0.193 A 
ATOM      8  C   LIG    1       -4.514 -11.179 -17.813  0.00  0.00    -0.013 A 
ATOM      9  C   LIG    1       -4.001 -11.485 -19.055  0.00  0.00    -0.090 A 
ATOM     10  S   LIG    1       -3.749 -10.562 -20.551  0.00  0.00    +0.218 S 
ENDROOT
BRANCH   8  11
ATOM     11  N   LIG    1       -5.008  -9.814 -17.526  0.00  0.00    +0.022 N 
ATOM     12  O   LIG    1       -4.399  -8.852 -17.935  0.00  0.00    -0.109 OA
ATOM     13  O   LIG    1       -6.020  -9.660 -16.884  0.00  0.00    -0.124 OA
ENDBRANCH   8  11
BRANCH   1  14
ATOM     14  C   LIG    1       -2.584 -11.809 -22.934  0.00  0.00    +0.549 C 
ATOM     15  O   LIG    1       -3.393 -11.749 -23.839  0.00  0.00    -0.446 OA
BRANCH  14  16
ATOM     16  O   LIG    1       -1.263 -11.823 -23.209  0.00  0.00    -0.346 OA
BRANCH  16  17
ATOM     17  C   LIG    1       -0.548 -10.602 -23.021  0.00  0.00    +0.493 C 
BRANCH  17  18
ATOM     18  O   LIG    1        0.357 -10.742 -21.924  0.00  0.00    -0.353 OA
BRANCH  18  19
ATOM     19  C   LIG    1        0.547  -9.662 -21.150  0.00  0.00    +0.462 C 
ATOM     20  O   LIG    1        1.500  -9.609 -20.409  0.00  0.00    -0.488 OA
BRANCH  19  22
ATOM     21  C   LIG    1       -1.147  -8.392 -19.858  0.00  0.00    +0.065 C 
ATOM     22  C   LIG    1       -0.429  -8.515 -21.204  0.00  0.00    +0.024 C 
ATOM     23  C   LIG    1        0.326  -7.217 -21.501  0.00  0.00    +0.061 C 
ENDBRANCH  19  22
ENDBRANCH  18  19
ENDBRANCH  17  18
ENDBRANCH  16  17
ENDBRANCH  14  16
ENDBRANCH   1  14
BRANCH   6  24
ATOM     24  O   LIG    1       -4.142 -14.404 -16.164  0.00  0.00    -0.468 OA
ATOM     25  H   LIG    1       -4.584 -14.124 -15.351  0.00  0.00    +0.401 HD
ENDBRANCH   6  24
BRANCH   7  26
ATOM     26  O   LIG    1       -5.067 -11.874 -15.605  0.00  0.00    -0.467 OA
ATOM     27  H   LIG    1       -5.408 -12.646 -15.133  0.00  0.00    +0.412 HD
ENDBRANCH   7  26
TORSDOF 9
ENDMDL
MODEL 3
REMARK VINA RESULT:      -5.8     10.824     13.220
REMARK  Name = CHEMBL1089537
REMARK                            x       y       z     vdW  Elec       q    Type
REMARK                         _______ _______ _______ _____ _____    ______ ____
ROOT
ATOM      1  C   LIG    1       -2.376 -15.076 -21.017  0.00  0.00    -0.179 A 
ATOM      2  C   LIG    1       -2.841 -15.177 -19.740  0.00  0.00    +0.030 A 
ATOM      3 CL   LIG    1       -2.887 -16.724 -18.952  0.00  0.00    +0.005 Cl
ATOM      4  C   LIG    1       -3.283 -14.027 -19.063  0.00  0.00    -0.085 A 
ATOM      5  C   LIG    1       -3.797 -13.932 -17.742  0.00  0.00    +0.136 A 
ATOM      6  C   LIG    1       -4.186 -12.733 -17.231  0.00  0.00    +0.096 A 
ATOM      7  C   LIG    1       -4.095 -11.556 -17.981  0.00  0.00    +0.193 A 
ATOM      8  C   LIG    1       -3.599 -11.610 -19.273  0.00  0.00    -0.013 A 
ATOM      9  C   LIG    1       -3.203 -12.822 -19.798  0.00  0.00    -0.090 A 
ATOM     10  S   LIG    1       -2.524 -13.331 -21.357  0.00  0.00    +0.218 S 
ENDROOT
BRANCH   8  11
ATOM     11  N   LIG    1       -3.495 -10.377 -20.083  0.00  0.00    +0.022 N 
ATOM     12  O   LIG    1       -2.788  -9.468 -19.713  0.00  0.00    -0.109 OA
ATOM     13  O   LIG    1       -4.116 -10.277 -21.115  0.00  0.00    -0.124 OA
ENDBRANCH   8  11
BRANCH   1  14
ATOM     14  C   LIG    1       -1.873 -16.138 -21.893  0.00  0.00    +0.549 C 
ATOM     15  O   LIG    1       -0.709 -16.137 -22.243  0.00  0.00    -0.446 OA
BRANCH  14  16
ATOM     16  O   LIG    1       -2.703 -17.117 -22.310  0.00  0.00    -0.346 OA
BRANCH  16  17
ATOM     17  C   LIG    1       -4.058 -16.751 -22.571  0.00  0.00    +0.493 C 
BRANCH  17  18
ATOM     18  O   LIG    1       -4.925 -17.467 -21.688  0.00  0.00    -0.353 OA
BRANCH  18  19
ATOM     19  C   LIG    1       -5.558 -18.537 -22.193  0.00  0.00    +0.462 C 
ATOM     20  O   LIG    1       -5.879 -18.556 -23.358  0.00  0.00    -0.488 OA
BRANCH  19  22
ATOM     21  C   LIG    1       -5.578 -21.014 -22.062  0.00  0.00    +0.065 C 
ATOM     22  C   LIG    1       -5.871 -19.716 -21.307  0.00  0.00    +0.024 C 
ATOM     23  C   LIG    1       -5.003 -19.651 -20.048  0.00  0.00    +0.061 C 
ENDBRANCH  19  22
ENDBRANCH  18  19
ENDBRANCH  17  18
ENDBRANCH  16  17
ENDBRANCH  14  16
ENDBRANCH   1  14
BRANCH   6  24
ATOM     24  O   LIG    1       -4.674 -12.678 -15.962  0.00  0.00    -0.468 OA
ATOM     25  H   LIG    1       -4.738 -11.782 -15.604  0.00  0.00    +0.401 HD
ENDBRANCH   6  24
BRANCH   7  26
ATOM     26  O   LIG    1       -4.491 -10.370 -17.448  0.00  0.00    -0.467 OA
ATOM     27  H   LIG    1       -4.531 -10.368 -16.482  0.00  0.00    +0.412 HD
ENDBRANCH   7  26
TORSDOF 9
ENDMDL
MODEL 4
REMARK VINA RESULT:      -5.7     10.606     12.090
REMARK  Name = CHEMBL1089537
REMARK                            x       y       z     vdW  Elec       q    Type
REMARK                         _______ _______ _______ _____ _____    ______ ____
ROOT
ATOM      1  C   LIG    1       -2.983 -11.656 -21.434  0.00  0.00    -0.179 A 
ATOM      2  C   LIG    1       -2.984 -12.733 -20.601  0.00  0.00    +0.030 A 
ATOM      3 CL   LIG    1       -2.341 -14.252 -21.142  0.00  0.00    +0.005 Cl
ATOM      4  C   LIG    1       -3.509 -12.613 -19.301  0.00  0.00    -0.085 A 
ATOM      5  C   LIG    1       -3.599 -13.613 -18.297  0.00  0.00    +0.136 A 
ATOM      6  C   LIG    1       -4.139 -13.331 -17.081  0.00  0.00    +0.096 A 
ATOM      7  C   LIG    1       -4.624 -12.055 -16.775  0.00  0.00    +0.193 A 
ATOM      8  C   LIG    1       -4.554 -11.056 -17.730  0.00  0.00    -0.013 A 
ATOM      9  C   LIG    1       -4.007 -11.333 -18.965  0.00  0.00    -0.090 A 
ATOM     10  S   LIG    1       -3.721 -10.377 -20.433  0.00  0.00    +0.218 S 
ENDROOT
BRANCH   8  11
ATOM     11  N   LIG    1       -5.061  -9.699 -17.427  0.00  0.00    +0.022 N 
ATOM     12  O   LIG    1       -4.444  -8.726 -17.794  0.00  0.00    -0.109 OA
ATOM     13  O   LIG    1       -6.094  -9.563 -16.814  0.00  0.00    -0.124 OA
ENDBRANCH   8  11
BRANCH   1  14
ATOM     14  C   LIG    1       -2.489 -11.568 -22.811  0.00  0.00    +0.549 C 
ATOM     15  O   LIG    1       -1.308 -11.369 -23.022  0.00  0.00    -0.446 OA
BRANCH  14  16
ATOM     16  O   LIG    1       -3.345 -11.706 -23.845  0.00  0.00    -0.346 OA
BRANCH  16  17
ATOM     17  C   LIG    1       -4.618 -12.287 -23.558  0.00  0.00    +0.493 C 
BRANCH  17  18
ATOM     18  O   LIG    1       -5.590 -11.786 -24.480  0.00  0.00    -0.353 OA
BRANCH  18  19
ATOM     19  C   LIG    1       -6.698 -11.237 -23.957  0.00  0.00    +0.462 C 
ATOM     20  O   LIG    1       -6.648 -10.141 -23.450  0.00  0.00    -0.488 OA
BRANCH  19  22
ATOM     21  C   LIG    1       -7.958 -13.024 -25.127  0.00  0.00    +0.065 C 
ATOM     22  C   LIG    1       -8.004 -11.987 -24.003  0.00  0.00    +0.024 C 
ATOM     23  C   LIG    1       -8.233 -12.694 -22.665  0.00  0.00    +0.061 C 
ENDBRANCH  19  22
ENDBRANCH  18  19
ENDBRANCH  17  18
ENDBRANCH  16  17
ENDBRANCH  14  16
ENDBRANCH   1  14
BRANCH   6  24
ATOM     24  O   LIG    1       -4.210 -14.313 -16.141  0.00  0.00    -0.468 OA
ATOM     25  H   LIG    1       -5.100 -14.664 -16.004  0.00  0.00    +0.401 HD
ENDBRANCH   6  24
BRANCH   7  26
ATOM     26  O   LIG    1       -5.161 -11.800 -15.553  0.00  0.00    -0.467 OA
ATOM     27  H   LIG    1       -4.504 -11.645 -14.860  0.00  0.00    +0.412 HD
ENDBRANCH   7  26
TORSDOF 9
ENDMDL
MODEL 5
REMARK VINA RESULT:      -5.7      1.862      2.834
REMARK  Name = CHEMBL1089537
REMARK                            x       y       z     vdW  Elec       q    Type
REMARK                         _______ _______ _______ _____ _____    ______ ____
ROOT
ATOM      1  C   LIG    1        6.807  -7.035 -20.301  0.00  0.00    -0.179 A 
ATOM      2  C   LIG    1        6.601  -7.199 -18.965  0.00  0.00    +0.030 A 
ATOM      3 CL   LIG    1        6.070  -8.733 -18.349  0.00  0.00    +0.005 Cl
ATOM      4  C   LIG    1        6.817  -6.124 -18.085  0.00  0.00    -0.085 A 
ATOM      5  C   LIG    1        6.657  -6.100 -16.674  0.00  0.00    +0.136 A 
ATOM      6  C   LIG    1        6.909  -4.968 -15.964  0.00  0.00    +0.096 A 
ATOM      7  C   LIG    1        7.334  -3.792 -16.591  0.00  0.00    +0.193 A 
ATOM      8  C   LIG    1        7.501  -3.778 -17.965  0.00  0.00    -0.013 A 
ATOM      9  C   LIG    1        7.247  -4.921 -18.692  0.00  0.00    -0.090 A 
ATOM     10  S   LIG    1        7.336  -5.335 -20.416  0.00  0.00    +0.218 S 
ENDROOT
BRANCH   8  11
ATOM     11  N   LIG    1        7.949  -2.544 -18.648  0.00  0.00    +0.022 N 
ATOM     12  O   LIG    1        7.188  -1.941 -19.370  0.00  0.00    -0.109 OA
ATOM     13  O   LIG    1        9.075  -2.137 -18.485  0.00  0.00    -0.124 OA
ENDBRANCH   8  11
BRANCH   1  14
ATOM     14  C   LIG    1        6.643  -8.016 -21.378  0.00  0.00    +0.549 C 
ATOM     15  O   LIG    1        7.619  -8.457 -21.953  0.00  0.00    -0.446 OA
BRANCH  14  16
ATOM     16  O   LIG    1        5.408  -8.429 -21.731  0.00  0.00    -0.346 OA
BRANCH  16  17
ATOM     17  C   LIG    1        4.415  -7.419 -21.917  0.00  0.00    +0.493 C 
BRANCH  17  18
ATOM     18  O   LIG    1        3.118  -8.020 -21.930  0.00  0.00    -0.353 OA
BRANCH  18  19
ATOM     19  C   LIG    1        2.224  -7.556 -21.043  0.00  0.00    +0.462 C 
ATOM     20  O   LIG    1        2.368  -6.459 -20.556  0.00  0.00    -0.488 OA
BRANCH  19  22
ATOM     21  C   LIG    1       -0.251  -7.713 -21.100  0.00  0.00    +0.065 C 
ATOM     22  C   LIG    1        1.040  -8.403 -20.654  0.00  0.00    +0.024 C 
ATOM     23  C   LIG    1        1.147  -9.772 -21.331  0.00  0.00    +0.061 C 
ENDBRANCH  19  22
ENDBRANCH  18  19
ENDBRANCH  17  18
ENDBRANCH  16  17
ENDBRANCH  14  16
ENDBRANCH   1  14
BRANCH   6  24
ATOM     24  O   LIG    1        6.745  -4.980 -14.613  0.00  0.00    -0.468 OA
ATOM     25  H   LIG    1        7.511  -5.314 -14.126  0.00  0.00    +0.401 HD
ENDBRANCH   6  24
BRANCH   7  26
ATOM     26  O   LIG    1        7.579  -2.674 -15.858  0.00  0.00    -0.467 OA
ATOM     27  H   LIG    1        7.128  -2.658 -15.003  0.00  0.00    +0.412 HD
ENDBRANCH   7  26
TORSDOF 9
ENDMDL
MODEL 6
REMARK VINA RESULT:      -5.6     10.219     13.775
REMARK  Name = CHEMBL1089537
REMARK                            x       y       z     vdW  Elec       q    Type
REMARK                         _______ _______ _______ _____ _____    ______ ____
ROOT
ATOM      1  C   LIG    1       -5.372  -1.980 -20.040  0.00  0.00    -0.179 A 
ATOM      2  C   LIG    1       -6.077  -2.164 -21.192  0.00  0.00    +0.030 A 
ATOM      3 CL   LIG    1       -5.668  -1.258 -22.615  0.00  0.00    +0.005 Cl
ATOM      4  C   LIG    1       -7.136  -3.089 -21.226  0.00  0.00    -0.085 A 
ATOM      5  C   LIG    1       -7.979  -3.415 -22.321  0.00  0.00    +0.136 A 
ATOM      6  C   LIG    1       -8.968  -4.340 -22.186  0.00  0.00    +0.096 A 
ATOM      7  C   LIG    1       -9.190  -5.000 -20.973  0.00  0.00    +0.193 A 
ATOM      8  C   LIG    1       -8.388  -4.706 -19.884  0.00  0.00    -0.013 A 
ATOM      9  C   LIG    1       -7.384  -3.771 -20.012  0.00  0.00    -0.090 A 
ATOM     10  S   LIG    1       -6.155  -3.116 -18.910  0.00  0.00    +0.218 S 
ENDROOT
BRANCH   8  11
ATOM     11  N   LIG    1       -8.607  -5.393 -18.591  0.00  0.00    +0.022 N 
ATOM     12  O   LIG    1       -7.908  -6.329 -18.278  0.00  0.00    -0.109 OA
ATOM     13  O   LIG    1       -9.483  -5.018 -17.848  0.00  0.00    -0.124 OA
ENDBRANCH   8  11
BRANCH   1  14
ATOM     14  C   LIG    1       -4.245  -1.078 -19.794  0.00  0.00    +0.549 C 
ATOM     15  O   LIG    1       -3.208  -1.511 -19.330  0.00  0.00    -0.446 OA
BRANCH  14  16
ATOM     16  O   LIG    1       -4.357   0.236 -20.082  0.00  0.00    -0.346 OA
BRANCH  16  17
ATOM     17  C   LIG    1       -3.170   1.025 -19.987  0.00  0.00    +0.493 C 
BRANCH  17  18
ATOM     18  O   LIG    1       -2.940   1.693 -21.229  0.00  0.00    -0.353 OA
BRANCH  18  19
ATOM     19  C   LIG    1       -1.884   1.288 -21.952  0.00  0.00    +0.462 C 
ATOM     20  O   LIG    1       -0.970   2.050 -22.165  0.00  0.00    -0.488 OA
BRANCH  19  22
ATOM     21  C   LIG    1       -2.156  -0.092 -23.995  0.00  0.00    +0.065 C 
ATOM     22  C   LIG    1       -1.838  -0.116 -22.498  0.00  0.00    +0.024 C 
ATOM     23  C   LIG    1       -0.441  -0.701 -22.282  0.00  0.00    +0.061 C 
ENDBRANCH  19  22
ENDBRANCH  18  19
ENDBRANCH  17  18
ENDBRANCH  16  17
ENDBRANCH  14  16
ENDBRANCH   1  14
BRANCH   6  24
ATOM     24  O   LIG    1       -9.758  -4.629 -23.256  0.00  0.00    -0.468 OA
ATOM     25  H   LIG    1       -9.666  -5.536 -23.579  0.00  0.00    +0.401 HD
ENDBRANCH   6  24
BRANCH   7  26
ATOM     26  O   LIG    1      -10.185  -5.919 -20.865  0.00  0.00    -0.467 OA
ATOM     27  H   LIG    1       -9.882  -6.835 -20.929  0.00  0.00    +0.412 HD
ENDBRANCH   7  26
TORSDOF 9
ENDMDL
MODEL 7
REMARK VINA RESULT:      -5.5     12.039     16.129
REMARK  Name = CHEMBL1089537
REMARK                            x       y       z     vdW  Elec       q    Type
REMARK                         _______ _______ _______ _____ _____    ______ ____
ROOT
ATOM      1  C   LIG    1       -3.679 -15.721 -22.258  0.00  0.00    -0.179 A 
ATOM      2  C   LIG    1       -3.543 -16.635 -21.257  0.00  0.00    +0.030 A 
ATOM      3 CL   LIG    1       -2.369 -16.382 -20.003  0.00  0.00    +0.005 Cl
ATOM      4  C   LIG    1       -4.354 -17.784 -21.243  0.00  0.00    -0.085 A 
ATOM      5  C   LIG    1       -4.359 -18.840 -20.294  0.00  0.00    +0.136 A 
ATOM      6  C   LIG    1       -5.213 -19.890 -20.425  0.00  0.00    +0.096 A 
ATOM      7  C   LIG    1       -6.113 -19.969 -21.493  0.00  0.00    +0.193 A 
ATOM      8  C   LIG    1       -6.136 -18.958 -22.438  0.00  0.00    -0.013 A 
ATOM      9  C   LIG    1       -5.273 -17.891 -22.312  0.00  0.00    -0.090 A 
ATOM     10  S   LIG    1       -4.981 -16.418 -23.259  0.00  0.00    +0.218 S 
ENDROOT
BRANCH   8  11
ATOM     11  N   LIG    1       -7.081 -19.022 -23.575  0.00  0.00    +0.022 N 
ATOM     12  O   LIG    1       -8.265 -18.868 -23.387  0.00  0.00    -0.109 OA
ATOM     13  O   LIG    1       -6.668 -19.228 -24.692  0.00  0.00    -0.124 OA
ENDBRANCH   8  11
BRANCH   1  14
ATOM     14  C   LIG    1       -2.943 -14.470 -22.459  0.00  0.00    +0.549 C 
ATOM     15  O   LIG    1       -1.759 -14.498 -22.734  0.00  0.00    -0.446 OA
BRANCH  14  16
ATOM     16  O   LIG    1       -3.579 -13.286 -22.337  0.00  0.00    -0.346 OA
BRANCH  16  17
ATOM     17  C   LIG    1       -4.246 -13.032 -21.100  0.00  0.00    +0.493 C 
BRANCH  17  18
ATOM     18  O   LIG    1       -3.286 -12.981 -20.042  0.00  0.00    -0.353 OA
BRANCH  18  19
ATOM     19  C   LIG    1       -3.628 -12.287 -18.945  0.00  0.00    +0.462 C 
ATOM     20  O   LIG    1       -3.247 -11.149 -18.806  0.00  0.00    -0.488 OA
BRANCH  19  22
ATOM     21  C   LIG    1       -3.811 -14.209 -17.388  0.00  0.00    +0.065 C 
ATOM     22  C   LIG    1       -4.486 -12.928 -17.884  0.00  0.00    +0.024 C 
ATOM     23  C   LIG    1       -4.662 -11.957 -16.715  0.00  0.00    +0.061 C 
ENDBRANCH  19  22
ENDBRANCH  18  19
ENDBRANCH  17  18
ENDBRANCH  16  17
ENDBRANCH  14  16
ENDBRANCH   1  14
BRANCH   6  24
ATOM     24  O   LIG    1       -5.191 -20.886 -19.498  0.00  0.00    -0.468 OA
ATOM     25  H   LIG    1       -5.742 -20.713 -18.722  0.00  0.00    +0.401 HD
ENDBRANCH   6  24
BRANCH   7  26
ATOM     26  O   LIG    1       -6.956 -21.030 -21.603  0.00  0.00    -0.467 OA
ATOM     27  H   LIG    1       -7.550 -21.139 -20.847  0.00  0.00    +0.412 HD
ENDBRANCH   7  26
TORSDOF 9
ENDMDL
MODEL 8
REMARK VINA RESULT:      -5.5     10.938     14.411
REMARK  Name = CHEMBL1089537
REMARK                            x       y       z     vdW  Elec       q    Type
REMARK                         _______ _______ _______ _____ _____    ______ ____
ROOT
ATOM      1  C   LIG    1       -4.581 -11.376 -23.015  0.00  0.00    -0.179 A 
ATOM      2  C   LIG    1       -5.268 -10.371 -23.626  0.00  0.00    +0.030 A 
ATOM      3 CL   LIG    1       -4.416  -9.011 -24.287  0.00  0.00    +0.005 Cl
ATOM      4  C   LIG    1       -6.670 -10.438 -23.720  0.00  0.00    -0.085 A 
ATOM      5  C   LIG    1       -7.554  -9.498 -24.313  0.00  0.00    +0.136 A 
ATOM      6  C   LIG    1       -8.897  -9.713 -24.319  0.00  0.00    +0.096 A 
ATOM      7  C   LIG    1       -9.455 -10.860 -23.746  0.00  0.00    +0.193 A 
ATOM      8  C   LIG    1       -8.624 -11.799 -23.159  0.00  0.00    -0.013 A 
ATOM      9  C   LIG    1       -7.262 -11.588 -23.148  0.00  0.00    -0.090 A 
ATOM     10  S   LIG    1       -5.874 -12.505 -22.529  0.00  0.00    +0.218 S 
ENDROOT
BRANCH   8  11
ATOM     11  N   LIG    1       -9.195 -13.019 -22.546  0.00  0.00    +0.022 N 
ATOM     12  O   LIG    1       -9.956 -12.928 -21.611  0.00  0.00    -0.109 OA
ATOM     13  O   LIG    1       -8.901 -14.108 -22.981  0.00  0.00    -0.124 OA
ENDBRANCH   8  11
BRANCH   1  14
ATOM     14  C   LIG    1       -3.135 -11.502 -22.813  0.00  0.00    +0.549 C 
ATOM     15  O   LIG    1       -2.519 -12.392 -23.365  0.00  0.00    -0.446 OA
BRANCH  14  16
ATOM     16  O   LIG    1       -2.487 -10.628 -22.014  0.00  0.00    -0.346 OA
BRANCH  16  17
ATOM     17  C   LIG    1       -3.120 -10.286 -20.780  0.00  0.00    +0.493 C 
BRANCH  17  18
ATOM     18  O   LIG    1       -2.713 -11.204 -19.763  0.00  0.00    -0.353 OA
BRANCH  18  19
ATOM     19  C   LIG    1       -3.642 -11.573 -18.868  0.00  0.00    +0.462 C 
ATOM     20  O   LIG    1       -4.058 -10.773 -18.063  0.00  0.00    -0.488 OA
BRANCH  19  22
ATOM     21  C   LIG    1       -3.349 -13.836 -19.840  0.00  0.00    +0.065 C 
ATOM     22  C   LIG    1       -4.168 -12.985 -18.866  0.00  0.00    +0.024 C 
ATOM     23  C   LIG    1       -4.054 -13.570 -17.456  0.00  0.00    +0.061 C 
ENDBRANCH  19  22
ENDBRANCH  18  19
ENDBRANCH  17  18
ENDBRANCH  16  17
ENDBRANCH  14  16
ENDBRANCH   1  14
BRANCH   6  24
ATOM     24  O   LIG    1       -9.716  -8.791 -24.896  0.00  0.00    -0.468 OA
ATOM     25  H   LIG    1       -9.253  -8.142 -25.443  0.00  0.00    +0.401 HD
ENDBRANCH   6  24
BRANCH   7  26
ATOM     26  O   LIG    1      -10.801 -11.051 -23.765  0.00  0.00    -0.467 OA
ATOM     27  H   LIG    1      -11.311 -10.273 -23.503  0.00  0.00    +0.412 HD
ENDBRANCH   7  26
TORSDOF 9
ENDMDL
MODEL 9
REMARK VINA RESULT:      -5.3     10.716     12.826
REMARK  Name = CHEMBL1089537
REMARK                            x       y       z     vdW  Elec       q    Type
REMARK                         _______ _______ _______ _____ _____    ______ ____
ROOT
ATOM      1  C   LIG    1       -2.484 -14.948 -21.010  0.00  0.00    -0.179 A 
ATOM      2  C   LIG    1       -2.984 -15.071 -19.748  0.00  0.00    +0.030 A 
ATOM      3 CL   LIG    1       -3.127 -16.640 -19.019  0.00  0.00    +0.005 Cl
ATOM      4  C   LIG    1       -3.384 -13.924 -19.038  0.00  0.00    -0.085 A 
ATOM      5  C   LIG    1       -3.923 -13.850 -17.727  0.00  0.00    +0.136 A 
ATOM      6  C   LIG    1       -4.263 -12.652 -17.181  0.00  0.00    +0.096 A 
ATOM      7  C   LIG    1       -4.094 -11.455 -17.884  0.00  0.00    +0.193 A 
ATOM      8  C   LIG    1       -3.571 -11.489 -19.166  0.00  0.00    -0.013 A 
ATOM      9  C   LIG    1       -3.225 -12.699 -19.726  0.00  0.00    -0.090 A 
ATOM     10  S   LIG    1       -2.535 -13.186 -21.288  0.00  0.00    +0.218 S 
ENDROOT
BRANCH   8  11
ATOM     11  N   LIG    1       -3.385 -10.234 -19.927  0.00  0.00    +0.022 N 
ATOM     12  O   LIG    1       -2.639  -9.378 -19.510  0.00  0.00    -0.109 OA
ATOM     13  O   LIG    1       -3.977 -10.064 -20.967  0.00  0.00    -0.124 OA
ENDBRANCH   8  11
BRANCH   1  14
ATOM     14  C   LIG    1       -2.015 -16.002 -21.913  0.00  0.00    +0.549 C 
ATOM     15  O   LIG    1       -0.843 -16.052 -22.232  0.00  0.00    -0.446 OA
BRANCH  14  16
ATOM     16  O   LIG    1       -2.884 -16.918 -22.390  0.00  0.00    -0.346 OA
BRANCH  16  17
ATOM     17  C   LIG    1       -3.769 -16.492 -23.427  0.00  0.00    +0.493 C 
BRANCH  17  18
ATOM     18  O   LIG    1       -5.073 -16.276 -22.884  0.00  0.00    -0.353 OA
BRANCH  18  19
ATOM     19  C   LIG    1       -6.109 -16.782 -23.571  0.00  0.00    +0.462 C 
ATOM     20  O   LIG    1       -6.317 -17.973 -23.562  0.00  0.00    -0.488 OA
BRANCH  19  22
ATOM     21  C   LIG    1       -6.825 -14.426 -23.869  0.00  0.00    +0.065 C 
ATOM     22  C   LIG    1       -7.014 -15.865 -24.353  0.00  0.00    +0.024 C 
ATOM     23  C   LIG    1       -6.666 -15.954 -25.841  0.00  0.00    +0.061 C 
ENDBRANCH  19  22
ENDBRANCH  18  19
ENDBRANCH  17  18
ENDBRANCH  16  17
ENDBRANCH  14  16
ENDBRANCH   1  14
BRANCH   6  24
ATOM     24  O   LIG    1       -4.778 -12.617 -15.921  0.00  0.00    -0.468 OA
ATOM     25  H   LIG    1       -4.915 -13.490 -15.528  0.00  0.00    +0.401 HD
ENDBRANCH   6  24
BRANCH   7  26
ATOM     26  O   LIG    1       -4.442 -10.270 -17.316  0.00  0.00    -0.467 OA
ATOM     27  H   LIG    1       -4.183 -10.189 -16.388  0.00  0.00    +0.412 HD
ENDBRANCH   7  26
TORSDOF 9
ENDMDL
