MODEL 1
REMARK VINA RESULT:      -5.8      0.000      0.000
REMARK  Name = CHEMBL1089630
REMARK                            x       y       z     vdW  Elec       q    Type
REMARK                         _______ _______ _______ _____ _____    ______ ____
ROOT
ATOM      1  C   LIG    1       -2.536 -15.052 -21.032  0.00  0.00    -0.264 A 
ATOM      2  C   LIG    1       -3.018 -15.133 -19.760  0.00  0.00    +0.098 A 
ATOM      3 CL   LIG    1       -3.176 -16.678 -18.985  0.00  0.00    -0.035 Cl
ATOM      4  C   LIG    1       -3.389 -13.960 -19.076  0.00  0.00    -0.215 A 
ATOM      5  C   LIG    1       -3.907 -13.841 -17.759  0.00  0.00    +0.108 A 
ATOM      6  C   LIG    1       -4.219 -12.624 -17.241  0.00  0.00    +0.018 A 
ATOM      7  C   LIG    1       -4.042 -11.449 -17.980  0.00  0.00    +0.331 A 
ATOM      8  O   LIG    1       -4.362 -10.244 -17.440  0.00  0.00    -0.622 OA
ATOM      9  C   LIG    1       -3.538 -11.526 -19.267  0.00  0.00    -0.165 A 
ATOM     10  C   LIG    1       -3.220 -12.757 -19.800  0.00  0.00    +0.011 A 
ATOM     11  S   LIG    1       -2.562 -13.298 -21.358  0.00  0.00    +0.113 S 
ENDROOT
BRANCH   9  12
ATOM     12  N   LIG    1       -3.344 -10.295 -20.067  0.00  0.00    +0.062 N 
ATOM     13  O   LIG    1       -4.068 -10.065 -21.008  0.00  0.00    -0.160 OA
ATOM     14  O   LIG    1       -2.462  -9.521 -19.779  0.00  0.00    -0.161 OA
ENDBRANCH   9  12
BRANCH   1  15
ATOM     15  C   LIG    1       -2.098 -16.138 -21.912  0.00  0.00    +0.560 C 
ATOM     16  O   LIG    1       -0.935 -16.494 -21.907  0.00  0.00    -0.491 OA
BRANCH  15  17
ATOM     17  O   LIG    1       -2.984 -16.743 -22.729  0.00  0.00    -0.346 OA
BRANCH  17  18
ATOM     18  C   LIG    1       -3.512 -17.999 -22.299  0.00  0.00    +0.204 C 
BRANCH  18  19
ATOM     19  C   LIG    1       -4.959 -17.816 -21.840  0.00  0.00    +0.030 C 
BRANCH  19  21
ATOM     20  C   LIG    1       -4.928 -19.671 -20.167  0.00  0.00    +0.016 C 
ATOM     21  C   LIG    1       -5.555 -19.176 -21.472  0.00  0.00    +0.009 C 
ENDBRANCH  19  21
ENDBRANCH  18  19
ENDBRANCH  17  18
ENDBRANCH  15  17
ENDBRANCH   1  15
BRANCH   6  22
ATOM     22  O   LIG    1       -4.714 -12.545 -15.976  0.00  0.00    -0.478 OA
ATOM     23  H   LIG    1       -4.037 -12.434 -15.295  0.00  0.00    +0.378 HD
ENDBRANCH   6  22
TORSDOF 7
ENDMDL
MODEL 2
REMARK VINA RESULT:      -5.4     11.338     13.242
REMARK  Name = CHEMBL1089630
REMARK                            x       y       z     vdW  Elec       q    Type
REMARK                         _______ _______ _______ _____ _____    ______ ____
ROOT
ATOM      1  C   LIG    1        6.026  -7.447 -19.076  0.00  0.00    -0.264 A 
ATOM      2  C   LIG    1        6.677  -6.420 -19.689  0.00  0.00    +0.098 A 
ATOM      3 CL   LIG    1        7.058  -6.516 -21.380  0.00  0.00    -0.035 Cl
ATOM      4  C   LIG    1        7.042  -5.280 -18.948  0.00  0.00    -0.215 A 
ATOM      5  C   LIG    1        7.719  -4.119 -19.405  0.00  0.00    +0.108 A 
ATOM      6  C   LIG    1        8.000  -3.097 -18.554  0.00  0.00    +0.018 A 
ATOM      7  C   LIG    1        7.634  -3.149 -17.204  0.00  0.00    +0.331 A 
ATOM      8  O   LIG    1        7.926  -2.114 -16.373  0.00  0.00    -0.622 OA
ATOM      9  C   LIG    1        6.972  -4.266 -16.724  0.00  0.00    -0.165 A 
ATOM     10  C   LIG    1        6.684  -5.307 -17.580  0.00  0.00    +0.011 A 
ATOM     11  S   LIG    1        5.870  -6.873 -17.394  0.00  0.00    +0.113 S 
ENDROOT
BRANCH   9  12
ATOM     12  N   LIG    1        6.576  -4.342 -15.299  0.00  0.00    +0.062 N 
ATOM     13  O   LIG    1        5.831  -3.510 -14.833  0.00  0.00    -0.160 OA
ATOM     14  O   LIG    1        6.996  -5.234 -14.602  0.00  0.00    -0.161 OA
ENDBRANCH   9  12
BRANCH   1  15
ATOM     15  C   LIG    1        5.562  -8.710 -19.656  0.00  0.00    +0.560 C 
ATOM     16  O   LIG    1        5.971  -9.768 -19.219  0.00  0.00    -0.491 OA
BRANCH  15  17
ATOM     17  O   LIG    1        4.681  -8.699 -20.679  0.00  0.00    -0.346 OA
BRANCH  17  18
ATOM     18  C   LIG    1        3.302  -8.532 -20.345  0.00  0.00    +0.204 C 
BRANCH  18  19
ATOM     19  C   LIG    1        2.846  -7.127 -20.745  0.00  0.00    +0.030 C 
BRANCH  19  21
ATOM     20  C   LIG    1        0.429  -7.699 -21.013  0.00  0.00    +0.016 C 
ATOM     21  C   LIG    1        1.690  -7.229 -21.741  0.00  0.00    +0.009 C 
ENDBRANCH  19  21
ENDBRANCH  18  19
ENDBRANCH  17  18
ENDBRANCH  15  17
ENDBRANCH   1  15
BRANCH   6  22
ATOM     22  O   LIG    1        8.651  -1.998 -19.024  0.00  0.00    -0.478 OA
ATOM     23  H   LIG    1        8.064  -1.300 -19.343  0.00  0.00    +0.378 HD
ENDBRANCH   6  22
TORSDOF 7
ENDMDL
MODEL 3
REMARK VINA RESULT:      -5.2      5.278      7.656
REMARK  Name = CHEMBL1089630
REMARK                            x       y       z     vdW  Elec       q    Type
REMARK                         _______ _______ _______ _____ _____    ______ ____
ROOT
ATOM      1  C   LIG    1       -2.092  -9.891 -21.396  0.00  0.00    -0.264 A 
ATOM      2  C   LIG    1       -2.438  -9.110 -22.458  0.00  0.00    +0.098 A 
ATOM      3 CL   LIG    1       -3.927  -9.400 -23.303  0.00  0.00    -0.035 Cl
ATOM      4  C   LIG    1       -1.585  -8.069 -22.869  0.00  0.00    -0.215 A 
ATOM      5  C   LIG    1       -1.770  -7.158 -23.943  0.00  0.00    +0.108 A 
ATOM      6  C   LIG    1       -0.843  -6.201 -24.212  0.00  0.00    +0.018 A 
ATOM      7  C   LIG    1        0.322  -6.078 -23.447  0.00  0.00    +0.331 A 
ATOM      8  O   LIG    1        1.234  -5.114 -23.736  0.00  0.00    -0.622 OA
ATOM      9  C   LIG    1        0.536  -6.949 -22.392  0.00  0.00    -0.165 A 
ATOM     10  C   LIG    1       -0.399  -7.922 -22.113  0.00  0.00    +0.011 A 
ATOM     11  S   LIG    1       -0.526  -9.202 -20.889  0.00  0.00    +0.113 S 
ENDROOT
BRANCH   9  12
ATOM     12  N   LIG    1        1.762  -6.836 -21.570  0.00  0.00    +0.062 N 
ATOM     13  O   LIG    1        2.741  -7.489 -21.851  0.00  0.00    -0.160 OA
ATOM     14  O   LIG    1        1.785  -6.093 -20.618  0.00  0.00    -0.161 OA
ENDBRANCH   9  12
BRANCH   1  15
ATOM     15  C   LIG    1       -2.827 -11.014 -20.811  0.00  0.00    +0.560 C 
ATOM     16  O   LIG    1       -2.403 -12.148 -20.931  0.00  0.00    -0.491 OA
BRANCH  15  17
ATOM     17  O   LIG    1       -3.977 -10.792 -20.140  0.00  0.00    -0.346 OA
BRANCH  17  18
ATOM     18  C   LIG    1       -3.877 -10.107 -18.891  0.00  0.00    +0.204 C 
BRANCH  18  19
ATOM     19  C   LIG    1       -4.537 -10.944 -17.794  0.00  0.00    +0.030 C 
BRANCH  19  21
ATOM     20  C   LIG    1       -4.244 -13.411 -17.520  0.00  0.00    +0.016 C 
ATOM     21  C   LIG    1       -3.575 -12.046 -17.344  0.00  0.00    +0.009 C 
ENDBRANCH  19  21
ENDBRANCH  18  19
ENDBRANCH  17  18
ENDBRANCH  15  17
ENDBRANCH   1  15
BRANCH   6  22
ATOM     22  O   LIG    1       -1.051  -5.345 -25.248  0.00  0.00    -0.478 OA
ATOM     23  H   LIG    1       -1.362  -4.469 -24.979  0.00  0.00    +0.378 HD
ENDBRANCH   6  22
TORSDOF 7
ENDMDL
MODEL 4
REMARK VINA RESULT:      -5.1      5.160      7.044
REMARK  Name = CHEMBL1089630
REMARK                            x       y       z     vdW  Elec       q    Type
REMARK                         _______ _______ _______ _____ _____    ______ ____
ROOT
ATOM      1  C   LIG    1       -2.828  -9.784 -22.286  0.00  0.00    -0.264 A 
ATOM      2  C   LIG    1       -1.875  -9.308 -21.438  0.00  0.00    +0.098 A 
ATOM      3 CL   LIG    1       -1.641 -10.048 -19.885  0.00  0.00    -0.035 Cl
ATOM      4  C   LIG    1       -1.079  -8.212 -21.822  0.00  0.00    -0.215 A 
ATOM      5  C   LIG    1       -0.045  -7.578 -21.084  0.00  0.00    +0.108 A 
ATOM      6  C   LIG    1        0.634  -6.521 -21.603  0.00  0.00    +0.018 A 
ATOM      7  C   LIG    1        0.341  -6.019 -22.877  0.00  0.00    +0.331 A 
ATOM      8  O   LIG    1        1.033  -4.961 -23.373  0.00  0.00    -0.622 OA
ATOM      9  C   LIG    1       -0.661  -6.612 -23.625  0.00  0.00    -0.165 A 
ATOM     10  C   LIG    1       -1.354  -7.685 -23.106  0.00  0.00    +0.011 A 
ATOM     11  S   LIG    1       -2.668  -8.717 -23.706  0.00  0.00    +0.113 S 
ENDROOT
BRANCH   9  12
ATOM     12  N   LIG    1       -0.987  -6.097 -24.975  0.00  0.00    +0.062 N 
ATOM     13  O   LIG    1       -0.338  -6.454 -25.931  0.00  0.00    -0.160 OA
ATOM     14  O   LIG    1       -1.901  -5.321 -25.120  0.00  0.00    -0.161 OA
ENDBRANCH   9  12
BRANCH   1  15
ATOM     15  C   LIG    1       -3.753 -10.902 -22.083  0.00  0.00    +0.560 C 
ATOM     16  O   LIG    1       -4.952 -10.699 -22.032  0.00  0.00    -0.491 OA
BRANCH  15  17
ATOM     17  O   LIG    1       -3.277 -12.157 -21.951  0.00  0.00    -0.346 OA
BRANCH  17  18
ATOM     18  C   LIG    1       -4.023 -13.052 -21.124  0.00  0.00    +0.204 C 
BRANCH  18  19
ATOM     19  C   LIG    1       -3.296 -13.243 -19.792  0.00  0.00    +0.030 C 
BRANCH  19  21
ATOM     20  C   LIG    1       -4.074 -13.707 -17.464  0.00  0.00    +0.016 C 
ATOM     21  C   LIG    1       -4.184 -12.747 -18.650  0.00  0.00    +0.009 C 
ENDBRANCH  19  21
ENDBRANCH  18  19
ENDBRANCH  17  18
ENDBRANCH  15  17
ENDBRANCH   1  15
BRANCH   6  22
ATOM     22  O   LIG    1        1.618  -5.936 -20.869  0.00  0.00    -0.478 OA
ATOM     23  H   LIG    1        1.560  -4.972 -20.830  0.00  0.00    +0.378 HD
ENDBRANCH   6  22
TORSDOF 7
ENDMDL
MODEL 5
REMARK VINA RESULT:      -5.0      1.582      2.076
REMARK  Name = CHEMBL1089630
REMARK                            x       y       z     vdW  Elec       q    Type
REMARK                         _______ _______ _______ _____ _____    ______ ____
ROOT
ATOM      1  C   LIG    1       -2.433 -15.030 -20.891  0.00  0.00    -0.264 A 
ATOM      2  C   LIG    1       -2.963 -15.093 -19.638  0.00  0.00    +0.098 A 
ATOM      3 CL   LIG    1       -3.140 -16.625 -18.843  0.00  0.00    -0.035 Cl
ATOM      4  C   LIG    1       -3.368 -13.911 -18.989  0.00  0.00    -0.215 A 
ATOM      5  C   LIG    1       -3.937 -13.773 -17.696  0.00  0.00    +0.108 A 
ATOM      6  C   LIG    1       -4.278 -12.550 -17.211  0.00  0.00    +0.018 A 
ATOM      7  C   LIG    1       -4.081 -11.386 -17.964  0.00  0.00    +0.331 A 
ATOM      8  O   LIG    1       -4.430 -10.175 -17.457  0.00  0.00    -0.622 OA
ATOM      9  C   LIG    1       -3.528 -11.482 -19.229  0.00  0.00    -0.165 A 
ATOM     10  C   LIG    1       -3.180 -12.719 -19.728  0.00  0.00    +0.011 A 
ATOM     11  S   LIG    1       -2.459 -13.283 -21.249  0.00  0.00    +0.113 S 
ENDROOT
BRANCH   9  12
ATOM     12  N   LIG    1       -3.311 -10.264 -20.042  0.00  0.00    +0.062 N 
ATOM     13  O   LIG    1       -2.419  -9.498 -19.757  0.00  0.00    -0.160 OA
ATOM     14  O   LIG    1       -4.026 -10.034 -20.989  0.00  0.00    -0.161 OA
ENDBRANCH   9  12
BRANCH   1  15
ATOM     15  C   LIG    1       -1.953 -16.127 -21.735  0.00  0.00    +0.560 C 
ATOM     16  O   LIG    1       -2.487 -16.351 -22.805  0.00  0.00    -0.491 OA
BRANCH  15  17
ATOM     17  O   LIG    1       -0.920 -16.892 -21.325  0.00  0.00    -0.346 OA
BRANCH  17  18
ATOM     18  C   LIG    1       -0.870 -18.233 -21.814  0.00  0.00    +0.204 C 
BRANCH  18  19
ATOM     19  C   LIG    1       -1.665 -19.147 -20.880  0.00  0.00    +0.030 C 
BRANCH  19  21
ATOM     20  C   LIG    1        0.530 -19.926 -19.976  0.00  0.00    +0.016 C 
ATOM     21  C   LIG    1       -0.859 -19.402 -19.605  0.00  0.00    +0.009 C 
ENDBRANCH  19  21
ENDBRANCH  18  19
ENDBRANCH  17  18
ENDBRANCH  15  17
ENDBRANCH   1  15
BRANCH   6  22
ATOM     22  O   LIG    1       -4.822 -12.454 -15.968  0.00  0.00    -0.478 OA
ATOM     23  H   LIG    1       -4.170 -12.375 -15.258  0.00  0.00    +0.378 HD
ENDBRANCH   6  22
TORSDOF 7
ENDMDL
MODEL 6
REMARK VINA RESULT:      -5.0      1.755      3.243
REMARK  Name = CHEMBL1089630
REMARK                            x       y       z     vdW  Elec       q    Type
REMARK                         _______ _______ _______ _____ _____    ______ ____
ROOT
ATOM      1  C   LIG    1       -2.443 -14.955 -20.973  0.00  0.00    -0.264 A 
ATOM      2  C   LIG    1       -2.963 -15.063 -19.719  0.00  0.00    +0.098 A 
ATOM      3 CL   LIG    1       -3.134 -16.624 -18.979  0.00  0.00    -0.035 Cl
ATOM      4  C   LIG    1       -3.363 -13.907 -19.024  0.00  0.00    -0.215 A 
ATOM      5  C   LIG    1       -3.922 -13.816 -17.722  0.00  0.00    +0.108 A 
ATOM      6  C   LIG    1       -4.258 -12.611 -17.190  0.00  0.00    +0.018 A 
ATOM      7  C   LIG    1       -4.067 -11.421 -17.901  0.00  0.00    +0.331 A 
ATOM      8  O   LIG    1       -4.411 -10.229 -17.347  0.00  0.00    -0.622 OA
ATOM      9  C   LIG    1       -3.524 -11.470 -19.173  0.00  0.00    -0.165 A 
ATOM     10  C   LIG    1       -3.181 -12.688 -19.720  0.00  0.00    +0.011 A 
ATOM     11  S   LIG    1       -2.472 -13.195 -21.266  0.00  0.00    +0.113 S 
ENDROOT
BRANCH   9  12
ATOM     12  N   LIG    1       -3.313 -10.223 -19.942  0.00  0.00    +0.062 N 
ATOM     13  O   LIG    1       -2.434  -9.456 -19.623  0.00  0.00    -0.160 OA
ATOM     14  O   LIG    1       -4.020  -9.970 -20.889  0.00  0.00    -0.161 OA
ENDBRANCH   9  12
BRANCH   1  15
ATOM     15  C   LIG    1       -1.971 -16.021 -21.860  0.00  0.00    +0.560 C 
ATOM     16  O   LIG    1       -2.471 -16.165 -22.959  0.00  0.00    -0.491 OA
BRANCH  15  17
ATOM     17  O   LIG    1       -0.980 -16.844 -21.458  0.00  0.00    -0.346 OA
BRANCH  17  18
ATOM     18  C   LIG    1        0.342 -16.533 -21.900  0.00  0.00    +0.204 C 
BRANCH  18  19
ATOM     19  C   LIG    1        1.116 -15.864 -20.764  0.00  0.00    +0.030 C 
BRANCH  19  21
ATOM     20  C   LIG    1        1.258 -13.750 -22.089  0.00  0.00    +0.016 C 
ATOM     21  C   LIG    1        2.066 -14.814 -21.342  0.00  0.00    +0.009 C 
ENDBRANCH  19  21
ENDBRANCH  18  19
ENDBRANCH  17  18
ENDBRANCH  15  17
ENDBRANCH   1  15
BRANCH   6  22
ATOM     22  O   LIG    1       -4.793 -12.560 -15.940  0.00  0.00    -0.478 OA
ATOM     23  H   LIG    1       -4.712 -11.697 -15.512  0.00  0.00    +0.378 HD
ENDBRANCH   6  22
TORSDOF 7
ENDMDL
MODEL 7
REMARK VINA RESULT:      -4.8      4.461      7.087
REMARK  Name = CHEMBL1089630
REMARK                            x       y       z     vdW  Elec       q    Type
REMARK                         _______ _______ _______ _____ _____    ______ ____
ROOT
ATOM      1  C   LIG    1       -1.056 -10.178 -21.986  0.00  0.00    -0.264 A 
ATOM      2  C   LIG    1       -1.547  -9.704 -20.807  0.00  0.00    +0.098 A 
ATOM      3 CL   LIG    1       -1.175  -8.087 -20.297  0.00  0.00    -0.035 Cl
ATOM      4  C   LIG    1       -2.355 -10.528 -20.002  0.00  0.00    -0.215 A 
ATOM      5  C   LIG    1       -2.953 -10.217 -18.752  0.00  0.00    +0.108 A 
ATOM      6  C   LIG    1       -3.711 -11.134 -18.095  0.00  0.00    +0.018 A 
ATOM      7  C   LIG    1       -3.931 -12.412 -18.622  0.00  0.00    +0.331 A 
ATOM      8  O   LIG    1       -4.693 -13.311 -17.946  0.00  0.00    -0.622 OA
ATOM      9  C   LIG    1       -3.364 -12.750 -19.839  0.00  0.00    -0.165 A 
ATOM     10  C   LIG    1       -2.593 -11.827 -20.511  0.00  0.00    +0.011 A 
ATOM     11  S   LIG    1       -1.711 -11.837 -22.051  0.00  0.00    +0.113 S 
ENDROOT
BRANCH   9  12
ATOM     12  N   LIG    1       -3.584 -14.097 -20.414  0.00  0.00    +0.062 N 
ATOM     13  O   LIG    1       -2.993 -15.051 -19.963  0.00  0.00    -0.160 OA
ATOM     14  O   LIG    1       -4.353 -14.243 -21.335  0.00  0.00    -0.161 OA
ENDBRANCH   9  12
BRANCH   1  15
ATOM     15  C   LIG    1       -0.206  -9.493 -22.962  0.00  0.00    +0.560 C 
ATOM     16  O   LIG    1       -0.510  -9.492 -24.140  0.00  0.00    -0.491 OA
BRANCH  15  17
ATOM     17  O   LIG    1        0.916  -8.863 -22.555  0.00  0.00    -0.346 OA
BRANCH  17  18
ATOM     18  C   LIG    1        1.928  -9.667 -21.948  0.00  0.00    +0.204 C 
BRANCH  18  19
ATOM     19  C   LIG    1        2.279  -9.096 -20.573  0.00  0.00    +0.030 C 
BRANCH  19  21
ATOM     20  C   LIG    1        3.860  -7.161 -20.579  0.00  0.00    +0.016 C 
ATOM     21  C   LIG    1        2.388  -7.573 -20.665  0.00  0.00    +0.009 C 
ENDBRANCH  19  21
ENDBRANCH  18  19
ENDBRANCH  17  18
ENDBRANCH  15  17
ENDBRANCH   1  15
BRANCH   6  22
ATOM     22  O   LIG    1       -4.269 -10.804 -16.899  0.00  0.00    -0.478 OA
ATOM     23  H   LIG    1       -3.628 -10.530 -16.228  0.00  0.00    +0.378 HD
ENDBRANCH   6  22
TORSDOF 7
ENDMDL
MODEL 8
REMARK VINA RESULT:      -4.8      4.917      6.762
REMARK  Name = CHEMBL1089630
REMARK                            x       y       z     vdW  Elec       q    Type
REMARK                         _______ _______ _______ _____ _____    ______ ____
ROOT
ATOM      1  C   LIG    1       -2.189 -10.278 -21.039  0.00  0.00    -0.264 A 
ATOM      2  C   LIG    1       -2.636  -9.559 -22.106  0.00  0.00    +0.098 A 
ATOM      3 CL   LIG    1       -4.143  -9.970 -22.863  0.00  0.00    -0.035 Cl
ATOM      4  C   LIG    1       -1.873  -8.482 -22.594  0.00  0.00    -0.215 A 
ATOM      5  C   LIG    1       -2.169  -7.622 -23.685  0.00  0.00    +0.108 A 
ATOM      6  C   LIG    1       -1.319  -6.620 -24.033  0.00  0.00    +0.018 A 
ATOM      7  C   LIG    1       -0.127  -6.398 -23.333  0.00  0.00    +0.331 A 
ATOM      8  O   LIG    1        0.706  -5.389 -23.700  0.00  0.00    -0.622 OA
ATOM      9  C   LIG    1        0.193  -7.216 -22.263  0.00  0.00    -0.165 A 
ATOM     10  C   LIG    1       -0.663  -8.235 -21.905  0.00  0.00    +0.011 A 
ATOM     11  S   LIG    1       -0.647  -9.476 -20.636  0.00  0.00    +0.113 S 
ENDROOT
BRANCH   9  12
ATOM     12  N   LIG    1        1.449  -6.998 -21.510  0.00  0.00    +0.062 N 
ATOM     13  O   LIG    1        2.409  -7.703 -21.718  0.00  0.00    -0.160 OA
ATOM     14  O   LIG    1        1.515  -6.116 -20.686  0.00  0.00    -0.161 OA
ENDBRANCH   9  12
BRANCH   1  15
ATOM     15  C   LIG    1       -2.821 -11.423 -20.381  0.00  0.00    +0.560 C 
ATOM     16  O   LIG    1       -3.651 -11.244 -19.510  0.00  0.00    -0.491 OA
BRANCH  15  17
ATOM     17  O   LIG    1       -2.483 -12.679 -20.740  0.00  0.00    -0.346 OA
BRANCH  17  18
ATOM     18  C   LIG    1       -3.533 -13.526 -21.208  0.00  0.00    +0.204 C 
BRANCH  18  19
ATOM     19  C   LIG    1       -3.292 -14.956 -20.722  0.00  0.00    +0.030 C 
BRANCH  19  21
ATOM     20  C   LIG    1       -1.961 -15.930 -18.845  0.00  0.00    +0.016 C 
ATOM     21  C   LIG    1       -3.080 -14.952 -19.207  0.00  0.00    +0.009 C 
ENDBRANCH  19  21
ENDBRANCH  18  19
ENDBRANCH  17  18
ENDBRANCH  15  17
ENDBRANCH   1  15
BRANCH   6  22
ATOM     22  O   LIG    1       -1.632  -5.815 -25.084  0.00  0.00    -0.478 OA
ATOM     23  H   LIG    1       -1.039  -5.909 -25.842  0.00  0.00    +0.378 HD
ENDBRANCH   6  22
TORSDOF 7
ENDMDL
MODEL 9
REMARK VINA RESULT:      -4.7      4.976      6.707
REMARK  Name = CHEMBL1089630
REMARK                            x       y       z     vdW  Elec       q    Type
REMARK                         _______ _______ _______ _____ _____    ______ ____
ROOT
ATOM      1  C   LIG    1       -1.608 -11.215 -21.512  0.00  0.00    -0.264 A 
ATOM      2  C   LIG    1       -1.334 -10.040 -20.879  0.00  0.00    +0.098 A 
ATOM      3 CL   LIG    1       -2.414  -9.434 -19.663  0.00  0.00    -0.035 Cl
ATOM      4  C   LIG    1       -0.173  -9.319 -21.213  0.00  0.00    -0.215 A 
ATOM      5  C   LIG    1        0.280  -8.087 -20.670  0.00  0.00    +0.108 A 
ATOM      6  C   LIG    1        1.433  -7.515 -21.106  0.00  0.00    +0.018 A 
ATOM      7  C   LIG    1        2.215  -8.115 -22.101  0.00  0.00    +0.331 A 
ATOM      8  O   LIG    1        3.364  -7.523 -22.520  0.00  0.00    -0.622 OA
ATOM      9  C   LIG    1        1.805  -9.316 -22.653  0.00  0.00    -0.165 A 
ATOM     10  C   LIG    1        0.636  -9.902 -22.217  0.00  0.00    +0.011 A 
ATOM     11  S   LIG    1       -0.231 -11.394 -22.632  0.00  0.00    +0.113 S 
ENDROOT
BRANCH   9  12
ATOM     12  N   LIG    1        2.616  -9.967 -23.707  0.00  0.00    +0.062 N 
ATOM     13  O   LIG    1        2.411  -9.712 -24.871  0.00  0.00    -0.160 OA
ATOM     14  O   LIG    1        3.483 -10.752 -23.403  0.00  0.00    -0.161 OA
ENDBRANCH   9  12
BRANCH   1  15
ATOM     15  C   LIG    1       -2.749 -12.112 -21.317  0.00  0.00    +0.560 C 
ATOM     16  O   LIG    1       -3.816 -11.864 -21.846  0.00  0.00    -0.491 OA
BRANCH  15  17
ATOM     17  O   LIG    1       -2.617 -13.214 -20.550  0.00  0.00    -0.346 OA
BRANCH  17  18
ATOM     18  C   LIG    1       -3.689 -13.513 -19.654  0.00  0.00    +0.204 C 
BRANCH  18  19
ATOM     19  C   LIG    1       -3.224 -14.549 -18.629  0.00  0.00    +0.030 C 
BRANCH  19  21
ATOM     20  C   LIG    1       -4.164 -12.711 -17.221  0.00  0.00    +0.016 C 
ATOM     21  C   LIG    1       -3.788 -14.194 -17.252  0.00  0.00    +0.009 C 
ENDBRANCH  19  21
ENDBRANCH  18  19
ENDBRANCH  17  18
ENDBRANCH  15  17
ENDBRANCH   1  15
BRANCH   6  22
ATOM     22  O   LIG    1        1.838  -6.334 -20.565  0.00  0.00    -0.478 OA
ATOM     23  H   LIG    1        2.017  -5.644 -21.217  0.00  0.00    +0.378 HD
ENDBRANCH   6  22
TORSDOF 7
ENDMDL
