MODEL 1
REMARK VINA RESULT:      -6.9      0.000      0.000
REMARK  Name = CHEMBL8649
REMARK                            x       y       z     vdW  Elec       q    Type
REMARK                         _______ _______ _______ _____ _____    ______ ____
ROOT
ATOM      1  C   LIG    1       -3.465 -12.991 -19.435  0.00  0.00    -0.123 A 
ATOM      2  C   LIG    1       -3.699 -14.027 -18.523  0.00  0.00    +0.113 A 
ATOM      3  C   LIG    1       -4.187 -13.741 -17.268  0.00  0.00    +0.054 A 
ATOM      4  C   LIG    1       -4.450 -12.427 -16.904  0.00  0.00    +0.131 A 
ATOM      5  C   LIG    1       -4.221 -11.389 -17.807  0.00  0.00    +0.119 A 
ATOM      6  C   LIG    1       -3.726 -11.666 -19.065  0.00  0.00    +0.003 A 
ENDROOT
BRANCH   6   7
ATOM      7  N   LIG    1       -3.476 -10.566 -20.023  0.00  0.00    +0.037 N 
ATOM      8  O   LIG    1       -2.558  -9.800 -19.839  0.00  0.00    -0.133 OA
ATOM      9  O   LIG    1       -4.189 -10.432 -20.990  0.00  0.00    -0.117 OA
ENDBRANCH   6   7
BRANCH   1  10
ATOM     10  C   LIG    1       -2.944 -13.293 -20.775  0.00  0.00    +0.383 C 
ATOM     11  O   LIG    1       -1.766 -13.133 -21.017  0.00  0.00    -0.426 OA
BRANCH  10  12
ATOM     12  C   LIG    1       -3.873 -13.801 -21.848  0.00  0.00    +0.055 C 
BRANCH  12  13
ATOM     13  C   LIG    1       -3.214 -14.974 -22.578  0.00  0.00    +0.032 C 
BRANCH  13  14
ATOM     14  C   LIG    1       -4.145 -16.188 -22.534  0.00  0.00    +0.020 C 
BRANCH  14  15
ATOM     15  C   LIG    1       -3.922 -16.954 -21.228  0.00  0.00    +0.065 C 
BRANCH  15  19
ATOM     16  C   LIG    1       -6.289 -20.510 -21.242  0.00  0.00    -0.005 A 
ATOM     17  C   LIG    1       -6.428 -19.583 -22.259  0.00  0.00    +0.004 A 
ATOM     18  C   LIG    1       -5.662 -18.432 -22.254  0.00  0.00    +0.002 A 
ATOM     19  C   LIG    1       -4.758 -18.208 -21.233  0.00  0.00    -0.082 A 
ATOM     20  C   LIG    1       -4.619 -19.135 -20.216  0.00  0.00    +0.002 A 
ATOM     21  C   LIG    1       -5.384 -20.286 -20.222  0.00  0.00    +0.003 A 
ENDBRANCH  15  19
ENDBRANCH  14  15
ENDBRANCH  13  14
ENDBRANCH  12  13
ENDBRANCH  10  12
ENDBRANCH   1  10
BRANCH   4  22
ATOM     22  O   LIG    1       -4.932 -12.152 -15.665  0.00  0.00    -0.472 OA
ATOM     23  H   LIG    1       -5.897 -12.157 -15.608  0.00  0.00    +0.403 HD
ENDBRANCH   4  22
BRANCH   5  24
ATOM     24  O   LIG    1       -4.480 -10.104 -17.446  0.00  0.00    -0.473 OA
ATOM     25  H   LIG    1       -3.856  -9.743 -16.802  0.00  0.00    +0.404 HD
ENDBRANCH   5  24
TORSDOF 9
ENDMDL
MODEL 2
REMARK VINA RESULT:      -6.7      5.614      7.918
REMARK  Name = CHEMBL8649
REMARK                            x       y       z     vdW  Elec       q    Type
REMARK                         _______ _______ _______ _____ _____    ______ ____
ROOT
ATOM      1  C   LIG    1       -4.172 -10.067 -18.391  0.00  0.00    -0.123 A 
ATOM      2  C   LIG    1       -4.681  -8.767 -18.303  0.00  0.00    +0.113 A 
ATOM      3  C   LIG    1       -5.620  -8.460 -17.343  0.00  0.00    +0.054 A 
ATOM      4  C   LIG    1       -6.062  -9.437 -16.461  0.00  0.00    +0.131 A 
ATOM      5  C   LIG    1       -5.559 -10.736 -16.543  0.00  0.00    +0.119 A 
ATOM      6  C   LIG    1       -4.622 -11.053 -17.505  0.00  0.00    +0.003 A 
ENDROOT
BRANCH   6   7
ATOM      7  N   LIG    1       -4.091 -12.432 -17.597  0.00  0.00    +0.037 N 
ATOM      8  O   LIG    1       -4.502 -13.183 -18.451  0.00  0.00    -0.133 OA
ATOM      9  O   LIG    1       -3.247 -12.808 -16.818  0.00  0.00    -0.117 OA
ENDBRANCH   6   7
BRANCH   1  10
ATOM     10  C   LIG    1       -3.170 -10.398 -19.414  0.00  0.00    +0.383 C 
ATOM     11  O   LIG    1       -3.524 -10.820 -20.494  0.00  0.00    -0.426 OA
BRANCH  10  12
ATOM     12  C   LIG    1       -1.704 -10.212 -19.120  0.00  0.00    +0.055 C 
BRANCH  12  13
ATOM     13  C   LIG    1       -0.979  -9.780 -20.397  0.00  0.00    +0.032 C 
BRANCH  13  14
ATOM     14  C   LIG    1       -1.183  -8.279 -20.616  0.00  0.00    +0.020 C 
BRANCH  14  15
ATOM     15  C   LIG    1       -0.314  -7.812 -21.786  0.00  0.00    +0.065 C 
BRANCH  15  19
ATOM     16  C   LIG    1       -2.809  -6.897 -25.131  0.00  0.00    -0.005 A 
ATOM     17  C   LIG    1       -1.723  -6.091 -24.837  0.00  0.00    +0.004 A 
ATOM     18  C   LIG    1       -0.917  -6.388 -23.754  0.00  0.00    +0.002 A 
ATOM     19  C   LIG    1       -1.195  -7.488 -22.966  0.00  0.00    -0.082 A 
ATOM     20  C   LIG    1       -2.280  -8.293 -23.260  0.00  0.00    +0.002 A 
ATOM     21  C   LIG    1       -3.086  -7.998 -24.343  0.00  0.00    +0.003 A 
ENDBRANCH  15  19
ENDBRANCH  14  15
ENDBRANCH  13  14
ENDBRANCH  12  13
ENDBRANCH  10  12
ENDBRANCH   1  10
BRANCH   4  22
ATOM     22  O   LIG    1       -6.988  -9.128 -15.518  0.00  0.00    -0.472 OA
ATOM     23  H   LIG    1       -7.067  -8.181 -15.340  0.00  0.00    +0.403 HD
ENDBRANCH   4  22
BRANCH   5  24
ATOM     24  O   LIG    1       -5.995 -11.689 -15.677  0.00  0.00    -0.473 OA
ATOM     25  H   LIG    1       -5.830 -12.594 -15.973  0.00  0.00    +0.404 HD
ENDBRANCH   5  24
TORSDOF 9
ENDMDL
MODEL 3
REMARK VINA RESULT:      -6.7      5.410      8.251
REMARK  Name = CHEMBL8649
REMARK                            x       y       z     vdW  Elec       q    Type
REMARK                         _______ _______ _______ _____ _____    ______ ____
ROOT
ATOM      1  C   LIG    1       -4.108 -10.462 -18.353  0.00  0.00    -0.123 A 
ATOM      2  C   LIG    1       -4.559  -9.139 -18.417  0.00  0.00    +0.113 A 
ATOM      3  C   LIG    1       -5.476  -8.679 -17.499  0.00  0.00    +0.054 A 
ATOM      4  C   LIG    1       -5.955  -9.526 -16.507  0.00  0.00    +0.131 A 
ATOM      5  C   LIG    1       -5.511 -10.847 -16.437  0.00  0.00    +0.119 A 
ATOM      6  C   LIG    1       -4.596 -11.316 -17.357  0.00  0.00    +0.003 A 
ENDROOT
BRANCH   6   7
ATOM      7  N   LIG    1       -4.128 -12.719 -17.287  0.00  0.00    +0.037 N 
ATOM      8  O   LIG    1       -3.076 -12.980 -16.749  0.00  0.00    -0.133 OA
ATOM      9  O   LIG    1       -4.796 -13.604 -17.769  0.00  0.00    -0.117 OA
ENDBRANCH   6   7
BRANCH   1  10
ATOM     10  C   LIG    1       -3.130 -10.955 -19.332  0.00  0.00    +0.383 C 
ATOM     11  O   LIG    1       -3.278 -12.046 -19.841  0.00  0.00    -0.426 OA
BRANCH  10  12
ATOM     12  C   LIG    1       -1.942 -10.105 -19.703  0.00  0.00    +0.055 C 
BRANCH  12  13
ATOM     13  C   LIG    1       -1.666 -10.242 -21.202  0.00  0.00    +0.032 C 
BRANCH  13  14
ATOM     14  C   LIG    1       -1.253  -8.883 -21.771  0.00  0.00    +0.020 C 
BRANCH  14  15
ATOM     15  C   LIG    1       -0.695  -8.008 -20.645  0.00  0.00    +0.065 C 
BRANCH  15  19
ATOM     16  C   LIG    1        3.511  -7.497 -21.191  0.00  0.00    -0.005 A 
ATOM     17  C   LIG    1        2.647  -6.453 -21.464  0.00  0.00    +0.004 A 
ATOM     18  C   LIG    1        1.286  -6.619 -21.288  0.00  0.00    +0.002 A 
ATOM     19  C   LIG    1        0.789  -7.828 -20.839  0.00  0.00    -0.082 A 
ATOM     20  C   LIG    1        1.653  -8.872 -20.566  0.00  0.00    +0.002 A 
ATOM     21  C   LIG    1        3.014  -8.706 -20.741  0.00  0.00    +0.003 A 
ENDBRANCH  15  19
ENDBRANCH  14  15
ENDBRANCH  13  14
ENDBRANCH  12  13
ENDBRANCH  10  12
ENDBRANCH   1  10
BRANCH   4  22
ATOM     22  O   LIG    1       -6.860  -9.067 -15.605  0.00  0.00    -0.472 OA
ATOM     23  H   LIG    1       -7.296  -8.246 -15.869  0.00  0.00    +0.403 HD
ENDBRANCH   4  22
BRANCH   5  24
ATOM     24  O   LIG    1       -5.983 -11.671 -15.465  0.00  0.00    -0.473 OA
ATOM     25  H   LIG    1       -5.404 -11.744 -14.694  0.00  0.00    +0.404 HD
ENDBRANCH   5  24
TORSDOF 9
ENDMDL
MODEL 4
REMARK VINA RESULT:      -6.6      4.483      8.149
REMARK  Name = CHEMBL8649
REMARK                            x       y       z     vdW  Elec       q    Type
REMARK                         _______ _______ _______ _____ _____    ______ ____
ROOT
ATOM      1  C   LIG    1       -3.839 -11.094 -19.358  0.00  0.00    -0.123 A 
ATOM      2  C   LIG    1       -4.217 -10.098 -18.450  0.00  0.00    +0.113 A 
ATOM      3  C   LIG    1       -4.658 -10.445 -17.193  0.00  0.00    +0.054 A 
ATOM      4  C   LIG    1       -4.728 -11.782 -16.823  0.00  0.00    +0.131 A 
ATOM      5  C   LIG    1       -4.353 -12.781 -17.722  0.00  0.00    +0.119 A 
ATOM      6  C   LIG    1       -3.915 -12.441 -18.986  0.00  0.00    +0.003 A 
ENDROOT
BRANCH   6   7
ATOM      7  N   LIG    1       -3.522 -13.499 -19.943  0.00  0.00    +0.037 N 
ATOM      8  O   LIG    1       -2.444 -14.037 -19.843  0.00  0.00    -0.133 OA
ATOM      9  O   LIG    1       -4.280 -13.827 -20.827  0.00  0.00    -0.117 OA
ENDBRANCH   6   7
BRANCH   1  10
ATOM     10  C   LIG    1       -3.369 -10.727 -20.701  0.00  0.00    +0.383 C 
ATOM     11  O   LIG    1       -4.169 -10.510 -21.586  0.00  0.00    -0.426 OA
BRANCH  10  12
ATOM     12  C   LIG    1       -1.891 -10.619 -20.978  0.00  0.00    +0.055 C 
BRANCH  12  13
ATOM     13  C   LIG    1       -1.211  -9.869 -19.830  0.00  0.00    +0.032 C 
BRANCH  13  14
ATOM     14  C   LIG    1       -1.163  -8.374 -20.157  0.00  0.00    +0.020 C 
BRANCH  14  15
ATOM     15  C   LIG    1        0.134  -8.058 -20.905  0.00  0.00    +0.065 C 
BRANCH  15  19
ATOM     16  C   LIG    1       -0.757  -5.721 -24.369  0.00  0.00    -0.005 A 
ATOM     17  C   LIG    1       -1.562  -6.795 -24.033  0.00  0.00    +0.004 A 
ATOM     18  C   LIG    1       -1.273  -7.551 -22.913  0.00  0.00    +0.002 A 
ATOM     19  C   LIG    1       -0.180  -7.234 -22.128  0.00  0.00    -0.082 A 
ATOM     20  C   LIG    1        0.624  -6.161 -22.464  0.00  0.00    +0.002 A 
ATOM     21  C   LIG    1        0.335  -5.404 -23.583  0.00  0.00    +0.003 A 
ENDBRANCH  15  19
ENDBRANCH  14  15
ENDBRANCH  13  14
ENDBRANCH  12  13
ENDBRANCH  10  12
ENDBRANCH   1  10
BRANCH   4  22
ATOM     22  O   LIG    1       -5.164 -12.118 -15.581  0.00  0.00    -0.472 OA
ATOM     23  H   LIG    1       -4.476 -12.486 -15.010  0.00  0.00    +0.403 HD
ENDBRANCH   4  22
BRANCH   5  24
ATOM     24  O   LIG    1       -4.423 -14.088 -17.354  0.00  0.00    -0.473 OA
ATOM     25  H   LIG    1       -5.245 -14.525 -17.613  0.00  0.00    +0.404 HD
ENDBRANCH   5  24
TORSDOF 9
ENDMDL
MODEL 5
REMARK VINA RESULT:      -6.6      4.533      8.183
REMARK  Name = CHEMBL8649
REMARK                            x       y       z     vdW  Elec       q    Type
REMARK                         _______ _______ _______ _____ _____    ______ ____
ROOT
ATOM      1  C   LIG    1       -3.851 -11.190 -19.309  0.00  0.00    -0.123 A 
ATOM      2  C   LIG    1       -4.251 -10.188 -18.417  0.00  0.00    +0.113 A 
ATOM      3  C   LIG    1       -4.700 -10.525 -17.160  0.00  0.00    +0.054 A 
ATOM      4  C   LIG    1       -4.754 -11.858 -16.772  0.00  0.00    +0.131 A 
ATOM      5  C   LIG    1       -4.357 -12.863 -17.655  0.00  0.00    +0.119 A 
ATOM      6  C   LIG    1       -3.912 -12.533 -18.919  0.00  0.00    +0.003 A 
ENDROOT
BRANCH   6   7
ATOM      7  N   LIG    1       -3.495 -13.598 -19.859  0.00  0.00    +0.037 N 
ATOM      8  O   LIG    1       -2.425 -14.145 -19.719  0.00  0.00    -0.133 OA
ATOM      9  O   LIG    1       -4.224 -13.922 -20.768  0.00  0.00    -0.117 OA
ENDBRANCH   6   7
BRANCH   1  10
ATOM     10  C   LIG    1       -3.373 -10.834 -20.651  0.00  0.00    +0.383 C 
ATOM     11  O   LIG    1       -4.147 -10.810 -21.584  0.00  0.00    -0.426 OA
BRANCH  10  12
ATOM     12  C   LIG    1       -1.920 -10.496 -20.868  0.00  0.00    +0.055 C 
BRANCH  12  13
ATOM     13  C   LIG    1       -1.798  -9.041 -21.327  0.00  0.00    +0.032 C 
BRANCH  13  14
ATOM     14  C   LIG    1       -0.773  -8.316 -20.451  0.00  0.00    +0.020 C 
BRANCH  14  15
ATOM     15  C   LIG    1        0.261  -7.625 -21.343  0.00  0.00    +0.065 C 
BRANCH  15  19
ATOM     16  C   LIG    1        4.192  -8.603 -19.989  0.00  0.00    -0.005 A 
ATOM     17  C   LIG    1        3.241  -9.598 -20.127  0.00  0.00    +0.004 A 
ATOM     18  C   LIG    1        1.969  -9.281 -20.564  0.00  0.00    +0.002 A 
ATOM     19  C   LIG    1        1.647  -7.970 -20.864  0.00  0.00    -0.082 A 
ATOM     20  C   LIG    1        2.599  -6.976 -20.727  0.00  0.00    +0.002 A 
ATOM     21  C   LIG    1        3.871  -7.293 -20.290  0.00  0.00    +0.003 A 
ENDBRANCH  15  19
ENDBRANCH  14  15
ENDBRANCH  13  14
ENDBRANCH  12  13
ENDBRANCH  10  12
ENDBRANCH   1  10
BRANCH   4  22
ATOM     22  O   LIG    1       -5.197 -12.183 -15.531  0.00  0.00    -0.472 OA
ATOM     23  H   LIG    1       -5.715 -12.999 -15.500  0.00  0.00    +0.403 HD
ENDBRANCH   4  22
BRANCH   5  24
ATOM     24  O   LIG    1       -4.413 -14.166 -17.271  0.00  0.00    -0.473 OA
ATOM     25  H   LIG    1       -4.409 -14.294 -16.313  0.00  0.00    +0.404 HD
ENDBRANCH   5  24
TORSDOF 9
ENDMDL
MODEL 6
REMARK VINA RESULT:      -6.5      1.875      3.292
REMARK  Name = CHEMBL8649
REMARK                            x       y       z     vdW  Elec       q    Type
REMARK                         _______ _______ _______ _____ _____    ______ ____
ROOT
ATOM      1  C   LIG    1       -4.179 -10.258 -18.357  0.00  0.00    -0.123 A 
ATOM      2  C   LIG    1       -4.654  -8.942 -18.369  0.00  0.00    +0.113 A 
ATOM      3  C   LIG    1       -5.570  -8.533 -17.426  0.00  0.00    +0.054 A 
ATOM      4  C   LIG    1       -6.024  -9.423 -16.461  0.00  0.00    +0.131 A 
ATOM      5  C   LIG    1       -5.554 -10.737 -16.442  0.00  0.00    +0.119 A 
ATOM      6  C   LIG    1       -4.641 -11.156 -17.388  0.00  0.00    +0.003 A 
ENDROOT
BRANCH   6   7
ATOM      7  N   LIG    1       -4.146 -12.551 -17.373  0.00  0.00    +0.037 N 
ATOM      8  O   LIG    1       -3.137 -12.830 -16.767  0.00  0.00    -0.133 OA
ATOM      9  O   LIG    1       -4.751 -13.413 -17.968  0.00  0.00    -0.117 OA
ENDBRANCH   6   7
BRANCH   1  10
ATOM     10  C   LIG    1       -3.202 -10.698 -19.363  0.00  0.00    +0.383 C 
ATOM     11  O   LIG    1       -2.015 -10.609 -19.134  0.00  0.00    -0.426 OA
BRANCH  10  12
ATOM     12  C   LIG    1       -3.677 -11.259 -20.678  0.00  0.00    +0.055 C 
BRANCH  12  13
ATOM     13  C   LIG    1       -2.657 -12.276 -21.196  0.00  0.00    +0.032 C 
BRANCH  13  14
ATOM     14  C   LIG    1       -3.114 -13.689 -20.823  0.00  0.00    +0.020 C 
BRANCH  14  15
ATOM     15  C   LIG    1       -3.328 -14.508 -22.098  0.00  0.00    +0.065 C 
BRANCH  15  19
ATOM     16  C   LIG    1       -4.723 -18.411 -21.065  0.00  0.00    -0.005 A 
ATOM     17  C   LIG    1       -5.159 -17.807 -22.230  0.00  0.00    +0.004 A 
ATOM     18  C   LIG    1       -4.708 -16.544 -22.564  0.00  0.00    +0.002 A 
ATOM     19  C   LIG    1       -3.821 -15.885 -21.734  0.00  0.00    -0.082 A 
ATOM     20  C   LIG    1       -3.385 -16.488 -20.568  0.00  0.00    +0.002 A 
ATOM     21  C   LIG    1       -3.835 -17.752 -20.235  0.00  0.00    +0.003 A 
ENDBRANCH  15  19
ENDBRANCH  14  15
ENDBRANCH  13  14
ENDBRANCH  12  13
ENDBRANCH  10  12
ENDBRANCH   1  10
BRANCH   4  22
ATOM     22  O   LIG    1       -6.927  -9.014 -15.534  0.00  0.00    -0.472 OA
ATOM     23  H   LIG    1       -7.381  -8.192 -15.764  0.00  0.00    +0.403 HD
ENDBRANCH   4  22
BRANCH   5  24
ATOM     24  O   LIG    1       -6.001 -11.605 -15.496  0.00  0.00    -0.473 OA
ATOM     25  H   LIG    1       -5.413 -11.694 -14.734  0.00  0.00    +0.404 HD
ENDBRANCH   5  24
TORSDOF 9
ENDMDL
MODEL 7
REMARK VINA RESULT:      -6.4      5.498      8.080
REMARK  Name = CHEMBL8649
REMARK                            x       y       z     vdW  Elec       q    Type
REMARK                         _______ _______ _______ _____ _____    ______ ____
ROOT
ATOM      1  C   LIG    1       -0.283  -7.399 -22.560  0.00  0.00    -0.123 A 
ATOM      2  C   LIG    1       -1.392  -7.366 -23.412  0.00  0.00    +0.113 A 
ATOM      3  C   LIG    1       -1.523  -6.349 -24.332  0.00  0.00    +0.054 A 
ATOM      4  C   LIG    1       -0.555  -5.356 -24.417  0.00  0.00    +0.131 A 
ATOM      5  C   LIG    1        0.554  -5.383 -23.571  0.00  0.00    +0.119 A 
ATOM      6  C   LIG    1        0.689  -6.395 -22.643  0.00  0.00    +0.003 A 
ENDROOT
BRANCH   6   7
ATOM      7  N   LIG    1        1.862  -6.422 -21.741  0.00  0.00    +0.037 N 
ATOM      8  O   LIG    1        1.756  -6.041 -20.598  0.00  0.00    -0.133 OA
ATOM      9  O   LIG    1        2.928  -6.825 -22.146  0.00  0.00    -0.117 OA
ENDBRANCH   6   7
BRANCH   1  10
ATOM     10  C   LIG    1       -0.141  -8.483 -21.578  0.00  0.00    +0.383 C 
ATOM     11  O   LIG    1        0.549  -9.446 -21.834  0.00  0.00    -0.426 OA
BRANCH  10  12
ATOM     12  C   LIG    1       -0.853  -8.395 -20.253  0.00  0.00    +0.055 C 
BRANCH  12  13
ATOM     13  C   LIG    1       -1.363  -9.783 -19.856  0.00  0.00    +0.032 C 
BRANCH  13  14
ATOM     14  C   LIG    1       -2.790  -9.969 -20.376  0.00  0.00    +0.020 C 
BRANCH  14  15
ATOM     15  C   LIG    1       -3.743 -10.154 -19.193  0.00  0.00    +0.065 C 
BRANCH  15  19
ATOM     16  C   LIG    1       -3.684 -14.238 -17.944  0.00  0.00    -0.005 A 
ATOM     17  C   LIG    1       -3.944 -13.238 -17.025  0.00  0.00    +0.004 A 
ATOM     18  C   LIG    1       -3.962 -11.917 -17.429  0.00  0.00    +0.002 A 
ATOM     19  C   LIG    1       -3.722 -11.595 -18.752  0.00  0.00    -0.082 A 
ATOM     20  C   LIG    1       -3.462 -12.595 -19.671  0.00  0.00    +0.002 A 
ATOM     21  C   LIG    1       -3.445 -13.916 -19.267  0.00  0.00    +0.003 A 
ENDBRANCH  15  19
ENDBRANCH  14  15
ENDBRANCH  13  14
ENDBRANCH  12  13
ENDBRANCH  10  12
ENDBRANCH   1  10
BRANCH   4  22
ATOM     22  O   LIG    1       -0.690  -4.357 -25.325  0.00  0.00    -0.472 OA
ATOM     23  H   LIG    1       -0.570  -4.639 -26.242  0.00  0.00    +0.403 HD
ENDBRANCH   4  22
BRANCH   5  24
ATOM     24  O   LIG    1        1.498  -4.409 -23.658  0.00  0.00    -0.473 OA
ATOM     25  H   LIG    1        1.549  -3.986 -24.526  0.00  0.00    +0.404 HD
ENDBRANCH   5  24
TORSDOF 9
ENDMDL
MODEL 8
REMARK VINA RESULT:      -6.3      4.083      6.819
REMARK  Name = CHEMBL8649
REMARK                            x       y       z     vdW  Elec       q    Type
REMARK                         _______ _______ _______ _____ _____    ______ ____
ROOT
ATOM      1  C   LIG    1       -3.438 -12.044 -19.716  0.00  0.00    -0.123 A 
ATOM      2  C   LIG    1       -3.813 -10.839 -19.112  0.00  0.00    +0.113 A 
ATOM      3  C   LIG    1       -4.319 -10.840 -17.831  0.00  0.00    +0.054 A 
ATOM      4  C   LIG    1       -4.457 -12.035 -17.136  0.00  0.00    +0.131 A 
ATOM      5  C   LIG    1       -4.085 -13.241 -17.732  0.00  0.00    +0.119 A 
ATOM      6  C   LIG    1       -3.583 -13.248 -19.018  0.00  0.00    +0.003 A 
ENDROOT
BRANCH   6   7
ATOM      7  N   LIG    1       -3.193 -14.526 -19.654  0.00  0.00    +0.037 N 
ATOM      8  O   LIG    1       -2.213 -15.121 -19.268  0.00  0.00    -0.133 OA
ATOM      9  O   LIG    1       -3.855 -14.977 -20.560  0.00  0.00    -0.117 OA
ENDBRANCH   6   7
BRANCH   1  10
ATOM     10  C   LIG    1       -2.899 -12.045 -21.083  0.00  0.00    +0.383 C 
ATOM     11  O   LIG    1       -1.704 -12.143 -21.263  0.00  0.00    -0.426 OA
BRANCH  10  12
ATOM     12  C   LIG    1       -3.832 -11.926 -22.261  0.00  0.00    +0.055 C 
BRANCH  12  13
ATOM     13  C   LIG    1       -3.200 -11.022 -23.322  0.00  0.00    +0.032 C 
BRANCH  13  14
ATOM     14  C   LIG    1       -3.643  -9.576 -23.087  0.00  0.00    +0.020 C 
BRANCH  14  15
ATOM     15  C   LIG    1       -2.476  -8.631 -23.387  0.00  0.00    +0.065 C 
BRANCH  15  19
ATOM     16  C   LIG    1        0.672  -9.320 -20.584  0.00  0.00    -0.005 A 
ATOM     17  C   LIG    1        0.874  -9.579 -21.927  0.00  0.00    +0.004 A 
ATOM     18  C   LIG    1       -0.145  -9.356 -22.834  0.00  0.00    +0.002 A 
ATOM     19  C   LIG    1       -1.366  -8.875 -22.398  0.00  0.00    -0.082 A 
ATOM     20  C   LIG    1       -1.568  -8.617 -21.055  0.00  0.00    +0.002 A 
ATOM     21  C   LIG    1       -0.548  -8.838 -20.148  0.00  0.00    +0.003 A 
ENDBRANCH  15  19
ENDBRANCH  14  15
ENDBRANCH  13  14
ENDBRANCH  12  13
ENDBRANCH  10  12
ENDBRANCH   1  10
BRANCH   4  22
ATOM     22  O   LIG    1       -4.956 -12.030 -15.874  0.00  0.00    -0.472 OA
ATOM     23  H   LIG    1       -5.550 -11.289 -15.689  0.00  0.00    +0.403 HD
ENDBRANCH   4  22
BRANCH   5  24
ATOM     24  O   LIG    1       -4.222 -14.407 -17.048  0.00  0.00    -0.473 OA
ATOM     25  H   LIG    1       -4.464 -15.162 -17.602  0.00  0.00    +0.404 HD
ENDBRANCH   5  24
TORSDOF 9
ENDMDL
MODEL 9
REMARK VINA RESULT:      -6.2      3.347      4.406
REMARK  Name = CHEMBL8649
REMARK                            x       y       z     vdW  Elec       q    Type
REMARK                         _______ _______ _______ _____ _____    ______ ____
ROOT
ATOM      1  C   LIG    1       -4.142 -10.187 -18.336  0.00  0.00    -0.123 A 
ATOM      2  C   LIG    1       -4.645  -8.881 -18.331  0.00  0.00    +0.113 A 
ATOM      3  C   LIG    1       -5.598  -8.515 -17.407  0.00  0.00    +0.054 A 
ATOM      4  C   LIG    1       -6.061  -9.439 -16.478  0.00  0.00    +0.131 A 
ATOM      5  C   LIG    1       -5.564 -10.742 -16.476  0.00  0.00    +0.119 A 
ATOM      6  C   LIG    1       -4.613 -11.119 -17.403  0.00  0.00    +0.003 A 
ENDROOT
BRANCH   6   7
ATOM      7  N   LIG    1       -4.090 -12.503 -17.407  0.00  0.00    +0.037 N 
ATOM      8  O   LIG    1       -3.037 -12.754 -16.867  0.00  0.00    -0.133 OA
ATOM      9  O   LIG    1       -4.714 -13.384 -17.951  0.00  0.00    -0.117 OA
ENDBRANCH   6   7
BRANCH   1  10
ATOM     10  C   LIG    1       -3.126 -10.581 -19.321  0.00  0.00    +0.383 C 
ATOM     11  O   LIG    1       -1.948 -10.479 -19.051  0.00  0.00    -0.426 OA
BRANCH  10  12
ATOM     12  C   LIG    1       -3.548 -11.113 -20.666  0.00  0.00    +0.055 C 
BRANCH  12  13
ATOM     13  C   LIG    1       -2.927 -12.495 -20.885  0.00  0.00    +0.032 C 
BRANCH  13  14
ATOM     14  C   LIG    1       -4.018 -13.482 -21.310  0.00  0.00    +0.020 C 
BRANCH  14  15
ATOM     15  C   LIG    1       -5.333 -12.728 -21.522  0.00  0.00    +0.065 C 
BRANCH  15  19
ATOM     16  C   LIG    1       -7.603 -14.665 -24.579  0.00  0.00    -0.005 A 
ATOM     17  C   LIG    1       -8.134 -13.579 -23.906  0.00  0.00    +0.004 A 
ATOM     18  C   LIG    1       -7.399 -12.953 -22.917  0.00  0.00    +0.002 A 
ATOM     19  C   LIG    1       -6.134 -13.412 -22.600  0.00  0.00    -0.082 A 
ATOM     20  C   LIG    1       -5.603 -14.497 -23.272  0.00  0.00    +0.002 A 
ATOM     21  C   LIG    1       -6.337 -15.123 -24.262  0.00  0.00    +0.003 A 
ENDBRANCH  15  19
ENDBRANCH  14  15
ENDBRANCH  13  14
ENDBRANCH  12  13
ENDBRANCH  10  12
ENDBRANCH   1  10
BRANCH   4  22
ATOM     22  O   LIG    1       -7.001  -9.071 -15.570  0.00  0.00    -0.472 OA
ATOM     23  H   LIG    1       -6.920  -9.519 -14.717  0.00  0.00    +0.403 HD
ENDBRANCH   4  22
BRANCH   5  24
ATOM     24  O   LIG    1       -6.021 -11.642 -15.566  0.00  0.00    -0.473 OA
ATOM     25  H   LIG    1       -6.892 -12.007 -15.775  0.00  0.00    +0.404 HD
ENDBRANCH   5  24
TORSDOF 9
ENDMDL
