MODEL 1
REMARK VINA RESULT:      -6.4      0.000      0.000
REMARK  Name = CHEMBL1091981
REMARK                            x       y       z     vdW  Elec       q    Type
REMARK                         _______ _______ _______ _____ _____    ______ ____
ROOT
ATOM      1  C   LIG    1        6.082  -7.455 -19.081  0.00  0.00    -0.267 A 
ATOM      2  C   LIG    1        6.709  -6.415 -19.700  0.00  0.00    +0.099 A 
ATOM      3 CL   LIG    1        7.086  -6.509 -21.392  0.00  0.00    -0.034 Cl
ATOM      4  C   LIG    1        7.051  -5.266 -18.965  0.00  0.00    -0.216 A 
ATOM      5  C   LIG    1        7.701  -4.091 -19.428  0.00  0.00    +0.109 A 
ATOM      6  C   LIG    1        7.962  -3.059 -18.581  0.00  0.00    +0.018 A 
ATOM      7  C   LIG    1        7.602  -3.116 -17.230  0.00  0.00    +0.331 A 
ATOM      8  O   LIG    1        7.874  -2.071 -16.404  0.00  0.00    -0.621 OA
ATOM      9  C   LIG    1        6.967  -4.245 -16.743  0.00  0.00    -0.165 A 
ATOM     10  C   LIG    1        6.699  -5.295 -17.595  0.00  0.00    +0.011 A 
ATOM     11  S   LIG    1        5.921  -6.878 -17.400  0.00  0.00    +0.116 S 
ENDROOT
BRANCH   9  12
ATOM     12  N   LIG    1        6.579  -4.324 -15.317  0.00  0.00    +0.062 N 
ATOM     13  O   LIG    1        5.823  -3.505 -14.850  0.00  0.00    -0.160 OA
ATOM     14  O   LIG    1        7.018  -5.209 -14.620  0.00  0.00    -0.161 OA
ENDBRANCH   9  12
BRANCH   1  15
ATOM     15  C   LIG    1        5.644  -8.729 -19.656  0.00  0.00    +0.560 C 
ATOM     16  O   LIG    1        6.467  -9.556 -20.001  0.00  0.00    -0.473 OA
BRANCH  15  17
ATOM     17  O   LIG    1        4.328  -8.985 -19.803  0.00  0.00    -0.346 OA
BRANCH  17  18
ATOM     18  C   LIG    1        3.649  -8.301 -20.859  0.00  0.00    +0.393 C 
ATOM     19  C   LIG    1        4.000  -8.953 -22.198  0.00  0.00    +0.082 C 
BRANCH  18  20
ATOM     20  O   LIG    1        2.238  -8.378 -20.646  0.00  0.00    -0.352 OA
BRANCH  20  21
ATOM     21  C   LIG    1        1.510  -7.305 -20.990  0.00  0.00    +0.456 C 
ATOM     22  O   LIG    1        1.856  -6.202 -20.640  0.00  0.00    -0.491 OA
BRANCH  21  23
ATOM     23  C   LIG    1        0.259  -7.476 -21.813  0.00  0.00    +0.099 C 
BRANCH  23  25
ATOM     24  C   LIG    1       -1.143  -8.431 -19.978  0.00  0.00    +0.022 C 
ATOM     25  C   LIG    1       -0.500  -8.716 -21.337  0.00  0.00    +0.029 C 
ENDBRANCH  23  25
ENDBRANCH  21  23
ENDBRANCH  20  21
ENDBRANCH  18  20
ENDBRANCH  17  18
ENDBRANCH  15  17
ENDBRANCH   1  15
BRANCH   6  26
ATOM     26  O   LIG    1        8.587  -1.948 -19.058  0.00  0.00    -0.478 OA
ATOM     27  H   LIG    1        8.236  -1.631 -19.900  0.00  0.00    +0.378 HD
ENDBRANCH   6  26
TORSDOF 9
ENDMDL
MODEL 2
REMARK VINA RESULT:      -6.0     10.586     13.078
REMARK  Name = CHEMBL1091981
REMARK                            x       y       z     vdW  Elec       q    Type
REMARK                         _______ _______ _______ _____ _____    ______ ____
ROOT
ATOM      1  C   LIG    1       -2.491 -14.933 -20.784  0.00  0.00    -0.267 A 
ATOM      2  C   LIG    1       -3.023 -14.988 -19.531  0.00  0.00    +0.099 A 
ATOM      3 CL   LIG    1       -3.206 -16.517 -18.729  0.00  0.00    -0.034 Cl
ATOM      4  C   LIG    1       -3.425 -13.803 -18.888  0.00  0.00    -0.216 A 
ATOM      5  C   LIG    1       -3.995 -13.657 -17.595  0.00  0.00    +0.109 A 
ATOM      6  C   LIG    1       -4.331 -12.429 -17.117  0.00  0.00    +0.018 A 
ATOM      7  C   LIG    1       -4.129 -11.271 -17.875  0.00  0.00    +0.331 A 
ATOM      8  O   LIG    1       -4.474 -10.055 -17.373  0.00  0.00    -0.621 OA
ATOM      9  C   LIG    1       -3.575 -11.374 -19.139  0.00  0.00    -0.165 A 
ATOM     10  C   LIG    1       -3.232 -12.614 -19.631  0.00  0.00    +0.011 A 
ATOM     11  S   LIG    1       -2.511 -13.187 -21.149  0.00  0.00    +0.116 S 
ENDROOT
BRANCH   9  12
ATOM     12  N   LIG    1       -3.354 -10.160 -19.956  0.00  0.00    +0.062 N 
ATOM     13  O   LIG    1       -2.495  -9.369 -19.644  0.00  0.00    -0.160 OA
ATOM     14  O   LIG    1       -4.033  -9.960 -20.937  0.00  0.00    -0.161 OA
ENDBRANCH   9  12
BRANCH   1  15
ATOM     15  C   LIG    1       -2.014 -16.037 -21.622  0.00  0.00    +0.560 C 
ATOM     16  O   LIG    1       -0.962 -16.588 -21.362  0.00  0.00    -0.473 OA
BRANCH  15  17
ATOM     17  O   LIG    1       -2.743 -16.439 -22.684  0.00  0.00    -0.346 OA
BRANCH  17  18
ATOM     18  C   LIG    1       -4.124 -16.725 -22.451  0.00  0.00    +0.393 C 
ATOM     19  C   LIG    1       -4.988 -15.702 -23.191  0.00  0.00    +0.082 C 
BRANCH  18  20
ATOM     20  O   LIG    1       -4.426 -18.038 -22.926  0.00  0.00    -0.352 OA
BRANCH  20  21
ATOM     21  C   LIG    1       -5.160 -18.823 -22.123  0.00  0.00    +0.456 C 
ATOM     22  O   LIG    1       -6.038 -19.511 -22.589  0.00  0.00    -0.491 OA
BRANCH  21  23
ATOM     23  C   LIG    1       -4.892 -18.846 -20.641  0.00  0.00    +0.099 C 
BRANCH  23  25
ATOM     24  C   LIG    1       -3.903 -21.060 -20.038  0.00  0.00    +0.022 C 
ATOM     25  C   LIG    1       -5.194 -20.240 -20.088  0.00  0.00    +0.029 C 
ENDBRANCH  23  25
ENDBRANCH  21  23
ENDBRANCH  20  21
ENDBRANCH  18  20
ENDBRANCH  17  18
ENDBRANCH  15  17
ENDBRANCH   1  15
BRANCH   6  26
ATOM     26  O   LIG    1       -4.876 -12.326 -15.874  0.00  0.00    -0.478 OA
ATOM     27  H   LIG    1       -4.538 -11.582 -15.358  0.00  0.00    +0.378 HD
ENDBRANCH   6  26
TORSDOF 9
ENDMDL
MODEL 3
REMARK VINA RESULT:      -6.0      6.843      9.293
REMARK  Name = CHEMBL1091981
REMARK                            x       y       z     vdW  Elec       q    Type
REMARK                         _______ _______ _______ _____ _____    ______ ____
ROOT
ATOM      1  C   LIG    1       -1.816 -10.176 -21.722  0.00  0.00    -0.267 A 
ATOM      2  C   LIG    1       -2.324  -9.338 -22.669  0.00  0.00    +0.099 A 
ATOM      3 CL   LIG    1       -3.826  -9.717 -23.453  0.00  0.00    -0.034 Cl
ATOM      4  C   LIG    1       -1.628  -8.164 -23.012  0.00  0.00    -0.216 A 
ATOM      5  C   LIG    1       -1.992  -7.176 -23.964  0.00  0.00    +0.109 A 
ATOM      6  C   LIG    1       -1.201  -6.090 -24.178  0.00  0.00    +0.018 A 
ATOM      7  C   LIG    1       -0.007  -5.907 -23.472  0.00  0.00    +0.331 A 
ATOM      8  O   LIG    1        0.767  -4.813 -23.705  0.00  0.00    -0.621 OA
ATOM      9  C   LIG    1        0.381  -6.850 -22.536  0.00  0.00    -0.165 A 
ATOM     10  C   LIG    1       -0.415  -7.953 -22.313  0.00  0.00    +0.011 A 
ATOM     11  S   LIG    1       -0.307  -9.359 -21.235  0.00  0.00    +0.116 S 
ENDROOT
BRANCH   9  12
ATOM     12  N   LIG    1        1.641  -6.675 -21.779  0.00  0.00    +0.062 N 
ATOM     13  O   LIG    1        1.623  -6.162 -20.685  0.00  0.00    -0.160 OA
ATOM     14  O   LIG    1        2.688  -7.045 -22.256  0.00  0.00    -0.161 OA
ENDBRANCH   9  12
BRANCH   1  15
ATOM     15  C   LIG    1       -2.375 -11.436 -21.225  0.00  0.00    +0.560 C 
ATOM     16  O   LIG    1       -1.753 -12.472 -21.357  0.00  0.00    -0.473 OA
BRANCH  15  17
ATOM     17  O   LIG    1       -3.581 -11.446 -20.621  0.00  0.00    -0.346 OA
BRANCH  17  18
ATOM     18  C   LIG    1       -3.592 -11.375 -19.193  0.00  0.00    +0.393 C 
ATOM     19  C   LIG    1       -3.970  -9.958 -18.756  0.00  0.00    +0.082 C 
BRANCH  18  20
ATOM     20  O   LIG    1       -4.547 -12.304 -18.677  0.00  0.00    -0.352 OA
BRANCH  20  21
ATOM     21  C   LIG    1       -4.228 -12.936 -17.538  0.00  0.00    +0.456 C 
ATOM     22  O   LIG    1       -4.357 -12.372 -16.477  0.00  0.00    -0.491 OA
BRANCH  21  23
ATOM     23  C   LIG    1       -3.709 -14.350 -17.580  0.00  0.00    +0.099 C 
BRANCH  23  25
ATOM     24  C   LIG    1       -2.476 -16.025 -18.966  0.00  0.00    +0.022 C 
ATOM     25  C   LIG    1       -3.117 -14.635 -18.962  0.00  0.00    +0.029 C 
ENDBRANCH  23  25
ENDBRANCH  21  23
ENDBRANCH  20  21
ENDBRANCH  18  20
ENDBRANCH  17  18
ENDBRANCH  15  17
ENDBRANCH   1  15
BRANCH   6  26
ATOM     26  O   LIG    1       -1.579  -5.162 -25.098  0.00  0.00    -0.478 OA
ATOM     27  H   LIG    1       -1.130  -4.311 -25.006  0.00  0.00    +0.378 HD
ENDBRANCH   6  26
TORSDOF 9
ENDMDL
MODEL 4
REMARK VINA RESULT:      -5.8      1.730      2.744
REMARK  Name = CHEMBL1091981
REMARK                            x       y       z     vdW  Elec       q    Type
REMARK                         _______ _______ _______ _____ _____    ______ ____
ROOT
ATOM      1  C   LIG    1        6.783  -7.036 -20.297  0.00  0.00    -0.267 A 
ATOM      2  C   LIG    1        6.551  -7.123 -18.957  0.00  0.00    +0.099 A 
ATOM      3 CL   LIG    1        5.977  -8.609 -18.269  0.00  0.00    -0.034 Cl
ATOM      4  C   LIG    1        6.778  -6.006 -18.133  0.00  0.00    -0.216 A 
ATOM      5  C   LIG    1        6.597  -5.903 -16.728  0.00  0.00    +0.109 A 
ATOM      6  C   LIG    1        6.865  -4.740 -16.075  0.00  0.00    +0.018 A 
ATOM      7  C   LIG    1        7.326  -3.609 -16.758  0.00  0.00    +0.331 A 
ATOM      8  O   LIG    1        7.586  -2.459 -16.082  0.00  0.00    -0.621 OA
ATOM      9  C   LIG    1        7.514  -3.673 -18.128  0.00  0.00    -0.165 A 
ATOM     10  C   LIG    1        7.245  -4.847 -18.797  0.00  0.00    +0.011 A 
ATOM     11  S   LIG    1        7.351  -5.356 -20.494  0.00  0.00    +0.116 S 
ENDROOT
BRANCH   9  12
ATOM     12  N   LIG    1        8.000  -2.487 -18.869  0.00  0.00    +0.062 N 
ATOM     13  O   LIG    1        9.186  -2.324 -19.038  0.00  0.00    -0.160 OA
ATOM     14  O   LIG    1        7.211  -1.681 -19.304  0.00  0.00    -0.161 OA
ENDBRANCH   9  12
BRANCH   1  15
ATOM     15  C   LIG    1        6.612  -8.069 -21.322  0.00  0.00    +0.560 C 
ATOM     16  O   LIG    1        7.544  -8.373 -22.041  0.00  0.00    -0.473 OA
BRANCH  15  17
ATOM     17  O   LIG    1        5.419  -8.682 -21.469  0.00  0.00    -0.346 OA
BRANCH  17  18
ATOM     18  C   LIG    1        4.298  -7.852 -21.781  0.00  0.00    +0.393 C 
ATOM     19  C   LIG    1        3.977  -7.968 -23.272  0.00  0.00    +0.082 C 
BRANCH  18  20
ATOM     20  O   LIG    1        3.167  -8.271 -21.015  0.00  0.00    -0.352 OA
BRANCH  20  21
ATOM     21  C   LIG    1        2.115  -7.439 -20.976  0.00  0.00    +0.456 C 
ATOM     22  O   LIG    1        2.248  -6.317 -20.549  0.00  0.00    -0.491 OA
BRANCH  21  23
ATOM     23  C   LIG    1        0.767  -7.906 -21.462  0.00  0.00    +0.099 C 
BRANCH  23  25
ATOM     24  C   LIG    1       -1.188  -8.477 -20.015  0.00  0.00    +0.022 C 
ATOM     25  C   LIG    1        0.197  -8.931 -20.481  0.00  0.00    +0.029 C 
ENDBRANCH  23  25
ENDBRANCH  21  23
ENDBRANCH  20  21
ENDBRANCH  18  20
ENDBRANCH  17  18
ENDBRANCH  15  17
ENDBRANCH   1  15
BRANCH   6  26
ATOM     26  O   LIG    1        6.680  -4.675 -14.728  0.00  0.00    -0.478 OA
ATOM     27  H   LIG    1        5.756  -4.742 -14.455  0.00  0.00    +0.378 HD
ENDBRANCH   6  26
TORSDOF 9
ENDMDL
MODEL 5
REMARK VINA RESULT:      -5.7      6.800     10.900
REMARK  Name = CHEMBL1091981
REMARK                            x       y       z     vdW  Elec       q    Type
REMARK                         _______ _______ _______ _____ _____    ______ ____
ROOT
ATOM      1  C   LIG    1       -2.881 -11.325 -21.283  0.00  0.00    -0.267 A 
ATOM      2  C   LIG    1       -2.884 -12.432 -20.487  0.00  0.00    +0.099 A 
ATOM      3 CL   LIG    1       -2.174 -13.912 -21.053  0.00  0.00    -0.034 Cl
ATOM      4  C   LIG    1       -3.463 -12.373 -19.207  0.00  0.00    -0.216 A 
ATOM      5  C   LIG    1       -3.562 -13.409 -18.241  0.00  0.00    +0.109 A 
ATOM      6  C   LIG    1       -4.158 -13.186 -17.039  0.00  0.00    +0.018 A 
ATOM      7  C   LIG    1       -4.693 -11.936 -16.710  0.00  0.00    +0.331 A 
ATOM      8  O   LIG    1       -5.284 -11.739 -15.502  0.00  0.00    -0.621 OA
ATOM      9  C   LIG    1       -4.615 -10.902 -17.627  0.00  0.00    -0.165 A 
ATOM     10  C   LIG    1       -4.013 -11.119 -18.847  0.00  0.00    +0.011 A 
ATOM     11  S   LIG    1       -3.698 -10.105 -20.270  0.00  0.00    +0.116 S 
ENDROOT
BRANCH   9  12
ATOM     12  N   LIG    1       -5.175  -9.572 -17.299  0.00  0.00    +0.062 N 
ATOM     13  O   LIG    1       -6.278  -9.484 -16.812  0.00  0.00    -0.160 OA
ATOM     14  O   LIG    1       -4.530  -8.573 -17.519  0.00  0.00    -0.161 OA
ENDBRANCH   9  12
BRANCH   1  15
ATOM     15  C   LIG    1       -2.337 -11.175 -22.635  0.00  0.00    +0.560 C 
ATOM     16  O   LIG    1       -2.770 -11.856 -23.545  0.00  0.00    -0.473 OA
BRANCH  15  17
ATOM     17  O   LIG    1       -1.355 -10.281 -22.870  0.00  0.00    -0.346 OA
BRANCH  17  18
ATOM     18  C   LIG    1       -0.226 -10.312 -21.993  0.00  0.00    +0.393 C 
ATOM     19  C   LIG    1        0.618 -11.552 -22.291  0.00  0.00    +0.082 C 
BRANCH  18  20
ATOM     20  O   LIG    1        0.564  -9.137 -22.191  0.00  0.00    -0.352 OA
BRANCH  20  21
ATOM     21  C   LIG    1        0.806  -8.377 -21.113  0.00  0.00    +0.456 C 
ATOM     22  O   LIG    1       -0.113  -7.936 -20.465  0.00  0.00    -0.491 OA
BRANCH  21  23
ATOM     23  C   LIG    1        2.226  -8.070 -20.711  0.00  0.00    +0.099 C 
BRANCH  23  25
ATOM     24  C   LIG    1        2.692  -6.312 -22.424  0.00  0.00    +0.022 C 
ATOM     25  C   LIG    1        2.509  -6.583 -20.929  0.00  0.00    +0.029 C 
ENDBRANCH  23  25
ENDBRANCH  21  23
ENDBRANCH  20  21
ENDBRANCH  18  20
ENDBRANCH  17  18
ENDBRANCH  15  17
ENDBRANCH   1  15
BRANCH   6  26
ATOM     26  O   LIG    1       -4.236 -14.202 -16.136  0.00  0.00    -0.478 OA
ATOM     27  H   LIG    1       -4.318 -15.078 -16.536  0.00  0.00    +0.378 HD
ENDBRANCH   6  26
TORSDOF 9
ENDMDL
MODEL 6
REMARK VINA RESULT:      -5.7     13.783     16.072
REMARK  Name = CHEMBL1091981
REMARK                            x       y       z     vdW  Elec       q    Type
REMARK                         _______ _______ _______ _____ _____    ______ ____
ROOT
ATOM      1  C   LIG    1       -9.586  -7.043 -24.864  0.00  0.00    -0.267 A 
ATOM      2  C   LIG    1       -8.332  -7.479 -25.169  0.00  0.00    +0.099 A 
ATOM      3 CL   LIG    1       -7.196  -6.403 -25.920  0.00  0.00    -0.034 Cl
ATOM      4  C   LIG    1       -7.959  -8.802 -24.874  0.00  0.00    -0.216 A 
ATOM      5  C   LIG    1       -6.710  -9.435 -25.113  0.00  0.00    +0.109 A 
ATOM      6  C   LIG    1       -6.509 -10.734 -24.765  0.00  0.00    +0.018 A 
ATOM      7  C   LIG    1       -7.519 -11.492 -24.162  0.00  0.00    +0.331 A 
ATOM      8  O   LIG    1       -7.293 -12.790 -23.823  0.00  0.00    -0.621 OA
ATOM      9  C   LIG    1       -8.749 -10.909 -23.913  0.00  0.00    -0.165 A 
ATOM     10  C   LIG    1       -8.961  -9.593 -24.263  0.00  0.00    +0.011 A 
ATOM     11  S   LIG    1      -10.338  -8.482 -24.124  0.00  0.00    +0.116 S 
ENDROOT
BRANCH   9  12
ATOM     12  N   LIG    1       -9.831 -11.694 -23.276  0.00  0.00    +0.062 N 
ATOM     13  O   LIG    1      -10.761 -12.089 -23.938  0.00  0.00    -0.160 OA
ATOM     14  O   LIG    1       -9.783 -11.940 -22.093  0.00  0.00    -0.161 OA
ENDBRANCH   9  12
BRANCH   1  15
ATOM     15  C   LIG    1      -10.171  -5.718 -25.085  0.00  0.00    +0.560 C 
ATOM     16  O   LIG    1      -10.481  -5.370 -26.208  0.00  0.00    -0.473 OA
BRANCH  15  17
ATOM     17  O   LIG    1      -10.365  -4.885 -24.042  0.00  0.00    -0.346 OA
BRANCH  17  18
ATOM     18  C   LIG    1       -9.223  -4.575 -23.239  0.00  0.00    +0.393 C 
ATOM     19  C   LIG    1       -8.386  -3.501 -23.936  0.00  0.00    +0.082 C 
BRANCH  18  20
ATOM     20  O   LIG    1       -9.654  -4.092 -21.965  0.00  0.00    -0.352 OA
BRANCH  20  21
ATOM     21  C   LIG    1       -9.225  -4.760 -20.883  0.00  0.00    +0.456 C 
ATOM     22  O   LIG    1       -9.924  -5.607 -20.380  0.00  0.00    -0.491 OA
BRANCH  21  23
ATOM     23  C   LIG    1       -7.873  -4.452 -20.294  0.00  0.00    +0.099 C 
BRANCH  23  25
ATOM     24  C   LIG    1       -7.118  -5.691 -18.260  0.00  0.00    +0.022 C 
ATOM     25  C   LIG    1       -7.954  -4.514 -18.768  0.00  0.00    +0.029 C 
ENDBRANCH  23  25
ENDBRANCH  21  23
ENDBRANCH  20  21
ENDBRANCH  18  20
ENDBRANCH  17  18
ENDBRANCH  15  17
ENDBRANCH   1  15
BRANCH   6  26
ATOM     26  O   LIG    1       -5.300 -11.310 -25.009  0.00  0.00    -0.478 OA
ATOM     27  H   LIG    1       -4.970 -11.166 -25.905  0.00  0.00    +0.378 HD
ENDBRANCH   6  26
TORSDOF 9
ENDMDL
MODEL 7
REMARK VINA RESULT:      -5.4      5.672     10.430
REMARK  Name = CHEMBL1091981
REMARK                            x       y       z     vdW  Elec       q    Type
REMARK                         _______ _______ _______ _____ _____    ______ ____
ROOT
ATOM      1  C   LIG    1       -1.027  -9.980 -21.965  0.00  0.00    -0.267 A 
ATOM      2  C   LIG    1       -1.490  -9.599 -20.742  0.00  0.00    +0.099 A 
ATOM      3 CL   LIG    1       -1.079  -8.038 -20.103  0.00  0.00    -0.034 Cl
ATOM      4  C   LIG    1       -2.302 -10.473 -19.997  0.00  0.00    -0.216 A 
ATOM      5  C   LIG    1       -2.876 -10.258 -18.715  0.00  0.00    +0.109 A 
ATOM      6  C   LIG    1       -3.644 -11.214 -18.127  0.00  0.00    +0.018 A 
ATOM      7  C   LIG    1       -3.897 -12.437 -18.758  0.00  0.00    +0.331 A 
ATOM      8  O   LIG    1       -4.668 -13.376 -18.149  0.00  0.00    -0.621 OA
ATOM      9  C   LIG    1       -3.354 -12.682 -20.007  0.00  0.00    -0.165 A 
ATOM     10  C   LIG    1       -2.574 -11.719 -20.611  0.00  0.00    +0.011 A 
ATOM     11  S   LIG    1       -1.715 -11.614 -22.160  0.00  0.00    +0.116 S 
ENDROOT
BRANCH   9  12
ATOM     12  N   LIG    1       -3.609 -13.970 -20.691  0.00  0.00    +0.062 N 
ATOM     13  O   LIG    1       -4.503 -14.058 -21.500  0.00  0.00    -0.160 OA
ATOM     14  O   LIG    1       -2.923 -14.933 -20.440  0.00  0.00    -0.161 OA
ENDBRANCH   9  12
BRANCH   1  15
ATOM     15  C   LIG    1       -0.176  -9.230 -22.893  0.00  0.00    +0.560 C 
ATOM     16  O   LIG    1       -0.675  -8.440 -23.672  0.00  0.00    -0.473 OA
BRANCH  15  17
ATOM     17  O   LIG    1        1.160  -9.417 -22.884  0.00  0.00    -0.346 OA
BRANCH  17  18
ATOM     18  C   LIG    1        1.861  -9.024 -21.702  0.00  0.00    +0.393 C 
ATOM     19  C   LIG    1        2.610 -10.229 -21.129  0.00  0.00    +0.082 C 
BRANCH  18  20
ATOM     20  O   LIG    1        2.794  -7.990 -22.023  0.00  0.00    -0.352 OA
BRANCH  20  21
ATOM     21  C   LIG    1        3.014  -7.055 -21.086  0.00  0.00    +0.456 C 
ATOM     22  O   LIG    1        2.082  -6.481 -20.575  0.00  0.00    -0.491 OA
BRANCH  21  23
ATOM     23  C   LIG    1        4.424  -6.720 -20.672  0.00  0.00    +0.099 C 
BRANCH  23  25
ATOM     24  C   LIG    1        5.806  -8.679 -19.968  0.00  0.00    +0.022 C 
ATOM     25  C   LIG    1        4.832  -7.600 -19.490  0.00  0.00    +0.029 C 
ENDBRANCH  23  25
ENDBRANCH  21  23
ENDBRANCH  20  21
ENDBRANCH  18  20
ENDBRANCH  17  18
ENDBRANCH  15  17
ENDBRANCH   1  15
BRANCH   6  26
ATOM     26  O   LIG    1       -4.178 -10.976 -16.898  0.00  0.00    -0.478 OA
ATOM     27  H   LIG    1       -4.560 -11.757 -16.478  0.00  0.00    +0.378 HD
ENDBRANCH   6  26
TORSDOF 9
ENDMDL
MODEL 8
REMARK VINA RESULT:      -5.4      6.834      9.720
REMARK  Name = CHEMBL1091981
REMARK                            x       y       z     vdW  Elec       q    Type
REMARK                         _______ _______ _______ _____ _____    ______ ____
ROOT
ATOM      1  C   LIG    1       -2.092 -10.230 -21.004  0.00  0.00    -0.267 A 
ATOM      2  C   LIG    1       -2.558  -9.519 -22.068  0.00  0.00    +0.099 A 
ATOM      3 CL   LIG    1       -4.075  -9.940 -22.799  0.00  0.00    -0.034 Cl
ATOM      4  C   LIG    1       -1.808  -8.442 -22.574  0.00  0.00    -0.216 A 
ATOM      5  C   LIG    1       -2.124  -7.589 -23.665  0.00  0.00    +0.109 A 
ATOM      6  C   LIG    1       -1.283  -6.585 -24.030  0.00  0.00    +0.018 A 
ATOM      7  C   LIG    1       -0.082  -6.355 -23.350  0.00  0.00    +0.331 A 
ATOM      8  O   LIG    1        0.741  -5.344 -23.735  0.00  0.00    -0.621 OA
ATOM      9  C   LIG    1        0.259  -7.165 -22.281  0.00  0.00    -0.165 A 
ATOM     10  C   LIG    1       -0.587  -8.186 -21.904  0.00  0.00    +0.011 A 
ATOM     11  S   LIG    1       -0.547  -9.420 -20.629  0.00  0.00    +0.116 S 
ENDROOT
BRANCH   9  12
ATOM     12  N   LIG    1        1.525  -6.938 -21.549  0.00  0.00    +0.062 N 
ATOM     13  O   LIG    1        2.513  -7.571 -21.839  0.00  0.00    -0.160 OA
ATOM     14  O   LIG    1        1.570  -6.121 -20.659  0.00  0.00    -0.161 OA
ENDBRANCH   9  12
BRANCH   1  15
ATOM     15  C   LIG    1       -2.710 -11.375 -20.330  0.00  0.00    +0.560 C 
ATOM     16  O   LIG    1       -3.122 -11.261 -19.191  0.00  0.00    -0.473 OA
BRANCH  15  17
ATOM     17  O   LIG    1       -2.820 -12.556 -20.973  0.00  0.00    -0.346 OA
BRANCH  17  18
ATOM     18  C   LIG    1       -3.913 -13.398 -20.599  0.00  0.00    +0.393 C 
ATOM     19  C   LIG    1       -5.081 -13.175 -21.562  0.00  0.00    +0.082 C 
BRANCH  18  20
ATOM     20  O   LIG    1       -3.502 -14.765 -20.655  0.00  0.00    -0.352 OA
BRANCH  20  21
ATOM     21  C   LIG    1       -3.056 -15.315 -19.515  0.00  0.00    +0.456 C 
ATOM     22  O   LIG    1       -3.237 -14.752 -18.462  0.00  0.00    -0.491 OA
BRANCH  21  23
ATOM     23  C   LIG    1       -2.327 -16.633 -19.549  0.00  0.00    +0.099 C 
BRANCH  23  25
ATOM     24  C   LIG    1       -4.113 -18.167 -20.389  0.00  0.00    +0.022 C 
ATOM     25  C   LIG    1       -2.809 -17.452 -20.749  0.00  0.00    +0.029 C 
ENDBRANCH  23  25
ENDBRANCH  21  23
ENDBRANCH  20  21
ENDBRANCH  18  20
ENDBRANCH  17  18
ENDBRANCH  15  17
ENDBRANCH   1  15
BRANCH   6  26
ATOM     26  O   LIG    1       -1.616  -5.787 -25.081  0.00  0.00    -0.478 OA
ATOM     27  H   LIG    1       -2.035  -4.955 -24.825  0.00  0.00    +0.378 HD
ENDBRANCH   6  26
TORSDOF 9
ENDMDL
MODEL 9
REMARK VINA RESULT:      -5.4     10.610     12.553
REMARK  Name = CHEMBL1091981
REMARK                            x       y       z     vdW  Elec       q    Type
REMARK                         _______ _______ _______ _____ _____    ______ ____
ROOT
ATOM      1  C   LIG    1       -2.428 -15.039 -21.082  0.00  0.00    -0.267 A 
ATOM      2  C   LIG    1       -2.933 -15.146 -19.821  0.00  0.00    +0.099 A 
ATOM      3 CL   LIG    1       -3.090 -16.705 -19.075  0.00  0.00    -0.034 Cl
ATOM      4  C   LIG    1       -3.328 -13.989 -19.125  0.00  0.00    -0.216 A 
ATOM      5  C   LIG    1       -3.872 -13.897 -17.816  0.00  0.00    +0.109 A 
ATOM      6  C   LIG    1       -4.204 -12.690 -17.284  0.00  0.00    +0.018 A 
ATOM      7  C   LIG    1       -4.024 -11.502 -18.000  0.00  0.00    +0.331 A 
ATOM      8  O   LIG    1       -4.365 -10.309 -17.445  0.00  0.00    -0.621 OA
ATOM      9  C   LIG    1       -3.497 -11.553 -19.278  0.00  0.00    -0.165 A 
ATOM     10  C   LIG    1       -3.157 -12.772 -19.826  0.00  0.00    +0.011 A 
ATOM     11  S   LIG    1       -2.466 -13.281 -21.379  0.00  0.00    +0.116 S 
ENDROOT
BRANCH   9  12
ATOM     12  N   LIG    1       -3.300 -10.307 -20.053  0.00  0.00    +0.062 N 
ATOM     13  O   LIG    1       -2.434  -9.527 -19.733  0.00  0.00    -0.160 OA
ATOM     14  O   LIG    1       -4.005 -10.071 -21.006  0.00  0.00    -0.161 OA
ENDBRANCH   9  12
BRANCH   1  15
ATOM     15  C   LIG    1       -1.963 -16.107 -21.972  0.00  0.00    +0.560 C 
ATOM     16  O   LIG    1       -0.788 -16.177 -22.276  0.00  0.00    -0.473 OA
BRANCH  15  17
ATOM     17  O   LIG    1       -2.840 -17.011 -22.455  0.00  0.00    -0.346 OA
BRANCH  17  18
ATOM     18  C   LIG    1       -3.746 -16.560 -23.465  0.00  0.00    +0.393 C 
ATOM     19  C   LIG    1       -3.680 -17.505 -24.666  0.00  0.00    +0.082 C 
BRANCH  18  20
ATOM     20  O   LIG    1       -5.075 -16.545 -22.941  0.00  0.00    -0.352 OA
BRANCH  20  21
ATOM     21  C   LIG    1       -6.002 -15.882 -23.649  0.00  0.00    +0.456 C 
ATOM     22  O   LIG    1       -7.022 -16.438 -23.980  0.00  0.00    -0.491 OA
BRANCH  21  23
ATOM     23  C   LIG    1       -5.770 -14.443 -24.033  0.00  0.00    +0.099 C 
BRANCH  23  25
ATOM     24  C   LIG    1       -6.094 -12.753 -22.221  0.00  0.00    +0.022 C 
ATOM     25  C   LIG    1       -6.792 -13.554 -23.322  0.00  0.00    +0.029 C 
ENDBRANCH  23  25
ENDBRANCH  21  23
ENDBRANCH  20  21
ENDBRANCH  18  20
ENDBRANCH  17  18
ENDBRANCH  15  17
ENDBRANCH   1  15
BRANCH   6  26
ATOM     26  O   LIG    1       -4.723 -12.638 -16.027  0.00  0.00    -0.478 OA
ATOM     27  H   LIG    1       -4.335 -11.951 -15.469  0.00  0.00    +0.378 HD
ENDBRANCH   6  26
TORSDOF 9
ENDMDL
