MODEL 1
REMARK VINA RESULT:      -5.8      0.000      0.000
REMARK  Name = CHEMBL353012
REMARK                            x       y       z     vdW  Elec       q    Type
REMARK                         _______ _______ _______ _____ _____    ______ ____
ROOT
ATOM      1  C   LIG    1       -3.485 -11.557 -19.158  0.00  0.00    -0.095 A 
ATOM      2  C   LIG    1       -4.145 -10.410 -18.694  0.00  0.00    +0.163 A 
ATOM      3  C   LIG    1       -4.829 -10.446 -17.501  0.00  0.00    -0.069 A 
ATOM      4  C   LIG    1       -4.868 -11.617 -16.753  0.00  0.00    +0.177 A 
ATOM      5  C   LIG    1       -4.215 -12.763 -17.206  0.00  0.00    +0.090 A 
ATOM      6  C   LIG    1       -3.531 -12.739 -18.404  0.00  0.00    +0.100 A 
ENDROOT
BRANCH   3   7
ATOM      7  N   LIG    1       -5.525  -9.234 -17.011  0.00  0.00    +0.034 N 
ATOM      8  O   LIG    1       -6.597  -9.333 -16.462  0.00  0.00    -0.127 OA
ATOM      9  O   LIG    1       -5.020  -8.145 -17.162  0.00  0.00    -0.154 OA
ENDBRANCH   3   7
BRANCH   1  11
ATOM     10  C   LIG    1       -3.323 -12.060 -21.563  0.00  0.00    -0.085 C 
ATOM     11  C   LIG    1       -2.756 -11.522 -20.427  0.00  0.00    +0.258 C 
BRANCH  10  12
ATOM     12  C   LIG    1       -2.530 -12.177 -22.795  0.00  0.00    +0.521 C 
ATOM     13  O   LIG    1       -2.421 -13.254 -23.348  0.00  0.00    -0.487 OA
BRANCH  12  14
ATOM     14  O   LIG    1       -1.924 -11.089 -23.313  0.00  0.00    -0.344 OA
BRANCH  14  16
ATOM     15  C   LIG    1       -2.580  -8.766 -23.197  0.00  0.00    +0.065 C 
ATOM     16  C   LIG    1       -2.766 -10.104 -23.916  0.00  0.00    +0.210 C 
ENDBRANCH  14  16
ENDBRANCH  12  14
ENDBRANCH  10  12
BRANCH  10  17
ATOM     17  C   LIG    1       -4.683 -12.507 -21.541  0.00  0.00    +0.244 C 
ATOM     18  N   LIG    1       -5.763 -12.862 -21.524  0.00  0.00    -0.385 NA
ENDBRANCH  10  17
ENDBRANCH   1  11
BRANCH   4  19
ATOM     19  O   LIG    1       -5.546 -11.645 -15.576  0.00  0.00    -0.457 OA
ATOM     20  H   LIG    1       -6.508 -11.617 -15.675  0.00  0.00    +0.409 HD
ENDBRANCH   4  19
BRANCH   5  21
ATOM     21  O   LIG    1       -4.256 -13.905 -16.470  0.00  0.00    -0.469 OA
ATOM     22  H   LIG    1       -3.500 -14.492 -16.612  0.00  0.00    +0.401 HD
ENDBRANCH   5  21
TORSDOF 8
ENDMDL
MODEL 2
REMARK VINA RESULT:      -5.7      1.801      3.195
REMARK  Name = CHEMBL353012
REMARK                            x       y       z     vdW  Elec       q    Type
REMARK                         _______ _______ _______ _____ _____    ______ ____
ROOT
ATOM      1  C   LIG    1       -3.435 -10.219 -19.019  0.00  0.00    -0.095 A 
ATOM      2  C   LIG    1       -3.307 -11.585 -18.727  0.00  0.00    +0.163 A 
ATOM      3  C   LIG    1       -3.998 -12.129 -17.669  0.00  0.00    -0.069 A 
ATOM      4  C   LIG    1       -4.825 -11.329 -16.888  0.00  0.00    +0.177 A 
ATOM      5  C   LIG    1       -4.959  -9.969 -17.172  0.00  0.00    +0.090 A 
ATOM      6  C   LIG    1       -4.265  -9.413 -18.227  0.00  0.00    +0.100 A 
ENDROOT
BRANCH   3   7
ATOM      7  N   LIG    1       -3.863 -13.571 -17.361  0.00  0.00    +0.034 N 
ATOM      8  O   LIG    1       -3.776 -14.375 -18.259  0.00  0.00    -0.127 OA
ATOM      9  O   LIG    1       -3.840 -13.943 -16.211  0.00  0.00    -0.154 OA
ENDBRANCH   3   7
BRANCH   1  11
ATOM     10  C   LIG    1       -2.974 -10.046 -21.432  0.00  0.00    -0.085 C 
ATOM     11  C   LIG    1       -2.701  -9.637 -20.145  0.00  0.00    +0.258 C 
BRANCH  10  12
ATOM     12  C   LIG    1       -2.129  -9.589 -22.544  0.00  0.00    +0.521 C 
ATOM     13  O   LIG    1       -1.462 -10.390 -23.170  0.00  0.00    -0.487 OA
BRANCH  12  14
ATOM     14  O   LIG    1       -2.094  -8.281 -22.870  0.00  0.00    -0.344 OA
BRANCH  14  16
ATOM     15  C   LIG    1       -0.239  -7.381 -21.610  0.00  0.00    +0.065 C 
ATOM     16  C   LIG    1       -0.804  -7.680 -23.000  0.00  0.00    +0.210 C 
ENDBRANCH  14  16
ENDBRANCH  12  14
ENDBRANCH  10  12
BRANCH  10  17
ATOM     17  C   LIG    1       -4.081 -10.920 -21.686  0.00  0.00    +0.244 C 
ATOM     18  N   LIG    1       -4.958 -11.614 -21.888  0.00  0.00    -0.385 NA
ENDBRANCH  10  17
ENDBRANCH   1  11
BRANCH   4  19
ATOM     19  O   LIG    1       -5.504 -11.872 -15.846  0.00  0.00    -0.457 OA
ATOM     20  H   LIG    1       -6.339 -12.291 -16.096  0.00  0.00    +0.409 HD
ENDBRANCH   4  19
BRANCH   5  21
ATOM     21  O   LIG    1       -5.769  -9.192 -16.406  0.00  0.00    -0.469 OA
ATOM     22  H   LIG    1       -6.180  -9.662 -15.667  0.00  0.00    +0.401 HD
ENDBRANCH   5  21
TORSDOF 8
ENDMDL
MODEL 3
REMARK VINA RESULT:      -5.6      1.516      1.792
REMARK  Name = CHEMBL353012
REMARK                            x       y       z     vdW  Elec       q    Type
REMARK                         _______ _______ _______ _____ _____    ______ ____
ROOT
ATOM      1  C   LIG    1       -3.851 -11.906 -19.427  0.00  0.00    -0.095 A 
ATOM      2  C   LIG    1       -4.400 -10.728 -18.902  0.00  0.00    +0.163 A 
ATOM      3  C   LIG    1       -4.815 -10.688 -17.591  0.00  0.00    -0.069 A 
ATOM      4  C   LIG    1       -4.692 -11.813 -16.784  0.00  0.00    +0.177 A 
ATOM      5  C   LIG    1       -4.146 -12.990 -17.298  0.00  0.00    +0.090 A 
ATOM      6  C   LIG    1       -3.732 -13.042 -18.613  0.00  0.00    +0.100 A 
ENDROOT
BRANCH   3   7
ATOM      7  N   LIG    1       -5.395  -9.443 -17.037  0.00  0.00    +0.034 N 
ATOM      8  O   LIG    1       -6.384  -9.493 -16.345  0.00  0.00    -0.127 OA
ATOM      9  O   LIG    1       -4.879  -8.377 -17.278  0.00  0.00    -0.154 OA
ENDBRANCH   3   7
BRANCH   1  11
ATOM     10  C   LIG    1       -2.471 -11.049 -21.278  0.00  0.00    -0.085 C 
ATOM     11  C   LIG    1       -3.408 -11.953 -20.822  0.00  0.00    +0.258 C 
BRANCH  10  12
ATOM     12  C   LIG    1       -2.149 -10.985 -22.710  0.00  0.00    +0.521 C 
ATOM     13  O   LIG    1       -2.710 -11.726 -23.493  0.00  0.00    -0.487 OA
BRANCH  12  14
ATOM     14  O   LIG    1       -1.231 -10.104 -23.156  0.00  0.00    -0.344 OA
BRANCH  14  16
ATOM     15  C   LIG    1       -1.519  -7.705 -23.193  0.00  0.00    +0.065 C 
ATOM     16  C   LIG    1       -1.707  -9.019 -23.954  0.00  0.00    +0.210 C 
ENDBRANCH  14  16
ENDBRANCH  12  14
ENDBRANCH  10  12
BRANCH  10  17
ATOM     17  C   LIG    1       -1.815 -10.172 -20.356  0.00  0.00    +0.244 C 
ATOM     18  N   LIG    1       -1.295  -9.475 -19.624  0.00  0.00    -0.385 NA
ENDBRANCH  10  17
ENDBRANCH   1  11
BRANCH   4  19
ATOM     19  O   LIG    1       -5.104 -11.767 -15.491  0.00  0.00    -0.457 OA
ATOM     20  H   LIG    1       -4.518 -12.226 -14.874  0.00  0.00    +0.409 HD
ENDBRANCH   4  19
BRANCH   5  21
ATOM     21  O   LIG    1       -4.027 -14.087 -16.504  0.00  0.00    -0.469 OA
ATOM     22  H   LIG    1       -3.748 -14.884 -16.974  0.00  0.00    +0.401 HD
ENDBRANCH   5  21
TORSDOF 8
ENDMDL
MODEL 4
REMARK VINA RESULT:      -5.2      3.489      4.830
REMARK  Name = CHEMBL353012
REMARK                            x       y       z     vdW  Elec       q    Type
REMARK                         _______ _______ _______ _____ _____    ______ ____
ROOT
ATOM      1  C   LIG    1       -3.419 -13.866 -18.629  0.00  0.00    -0.095 A 
ATOM      2  C   LIG    1       -3.153 -12.754 -19.441  0.00  0.00    +0.163 A 
ATOM      3  C   LIG    1       -3.519 -11.495 -19.024  0.00  0.00    -0.069 A 
ATOM      4  C   LIG    1       -4.151 -11.321 -17.798  0.00  0.00    +0.177 A 
ATOM      5  C   LIG    1       -4.418 -12.421 -16.983  0.00  0.00    +0.090 A 
ATOM      6  C   LIG    1       -4.061 -13.689 -17.395  0.00  0.00    +0.100 A 
ENDROOT
BRANCH   3   7
ATOM      7  N   LIG    1       -3.238 -10.322 -19.883  0.00  0.00    +0.034 N 
ATOM      8  O   LIG    1       -2.545  -9.422 -19.469  0.00  0.00    -0.127 OA
ATOM      9  O   LIG    1       -3.704 -10.264 -20.997  0.00  0.00    -0.154 OA
ENDBRANCH   3   7
BRANCH   1  11
ATOM     10  C   LIG    1       -3.397 -15.655 -20.321  0.00  0.00    -0.085 C 
ATOM     11  C   LIG    1       -3.031 -15.208 -19.070  0.00  0.00    +0.258 C 
BRANCH  10  12
ATOM     12  C   LIG    1       -3.155 -17.054 -20.701  0.00  0.00    +0.521 C 
ATOM     13  O   LIG    1       -2.228 -17.332 -21.436  0.00  0.00    -0.487 OA
BRANCH  12  14
ATOM     14  O   LIG    1       -3.962 -18.028 -20.235  0.00  0.00    -0.344 OA
BRANCH  14  16
ATOM     15  C   LIG    1       -5.427 -19.916 -20.594  0.00  0.00    +0.065 C 
ATOM     16  C   LIG    1       -4.889 -18.600 -21.160  0.00  0.00    +0.210 C 
ENDBRANCH  14  16
ENDBRANCH  12  14
ENDBRANCH  10  12
BRANCH  10  17
ATOM     17  C   LIG    1       -4.014 -14.757 -21.250  0.00  0.00    +0.244 C 
ATOM     18  N   LIG    1       -4.504 -14.043 -21.986  0.00  0.00    -0.385 NA
ENDBRANCH  10  17
ENDBRANCH   1  11
BRANCH   4  19
ATOM     19  O   LIG    1       -4.509 -10.076 -17.393  0.00  0.00    -0.457 OA
ATOM     20  H   LIG    1       -3.837  -9.626 -16.862  0.00  0.00    +0.409 HD
ENDBRANCH   4  19
BRANCH   5  21
ATOM     21  O   LIG    1       -5.035 -12.245 -15.785  0.00  0.00    -0.469 OA
ATOM     22  H   LIG    1       -4.643 -11.549 -15.239  0.00  0.00    +0.401 HD
ENDBRANCH   5  21
TORSDOF 8
ENDMDL
MODEL 5
REMARK VINA RESULT:      -5.2      2.353      3.844
REMARK  Name = CHEMBL353012
REMARK                            x       y       z     vdW  Elec       q    Type
REMARK                         _______ _______ _______ _____ _____    ______ ____
ROOT
ATOM      1  C   LIG    1       -3.839 -11.063 -19.883  0.00  0.00    -0.095 A 
ATOM      2  C   LIG    1       -3.584 -12.422 -19.653  0.00  0.00    +0.163 A 
ATOM      3  C   LIG    1       -3.745 -12.948 -18.391  0.00  0.00    -0.069 A 
ATOM      4  C   LIG    1       -4.161 -12.135 -17.343  0.00  0.00    +0.177 A 
ATOM      5  C   LIG    1       -4.418 -10.781 -17.563  0.00  0.00    +0.090 A 
ATOM      6  C   LIG    1       -4.254 -10.243 -18.823  0.00  0.00    +0.100 A 
ENDROOT
BRANCH   3   7
ATOM      7  N   LIG    1       -3.475 -14.383 -18.149  0.00  0.00    +0.034 N 
ATOM      8  O   LIG    1       -4.088 -14.978 -17.293  0.00  0.00    -0.127 OA
ATOM      9  O   LIG    1       -2.641 -14.961 -18.807  0.00  0.00    -0.154 OA
ENDBRANCH   3   7
BRANCH   1  11
ATOM     10  C   LIG    1       -2.543  -9.763 -21.525  0.00  0.00    -0.085 C 
ATOM     11  C   LIG    1       -3.669 -10.500 -21.224  0.00  0.00    +0.258 C 
BRANCH  10  12
ATOM     12  C   LIG    1       -2.447  -9.059 -22.811  0.00  0.00    +0.521 C 
ATOM     13  O   LIG    1       -3.437  -8.918 -23.502  0.00  0.00    -0.487 OA
BRANCH  12  14
ATOM     14  O   LIG    1       -1.260  -8.570 -23.225  0.00  0.00    -0.344 OA
BRANCH  14  16
ATOM     15  C   LIG    1       -1.302  -6.379 -24.243  0.00  0.00    +0.065 C 
ATOM     16  C   LIG    1       -1.008  -7.185 -22.976  0.00  0.00    +0.210 C 
ENDBRANCH  14  16
ENDBRANCH  12  14
ENDBRANCH  10  12
BRANCH  10  17
ATOM     17  C   LIG    1       -1.468  -9.681 -20.582  0.00  0.00    +0.244 C 
ATOM     18  N   LIG    1       -0.615  -9.616 -19.833  0.00  0.00    -0.385 NA
ENDBRANCH  10  17
ENDBRANCH   1  11
BRANCH   4  19
ATOM     19  O   LIG    1       -4.318 -12.660 -16.101  0.00  0.00    -0.457 OA
ATOM     20  H   LIG    1       -4.275 -13.626 -16.074  0.00  0.00    +0.409 HD
ENDBRANCH   4  19
BRANCH   5  21
ATOM     21  O   LIG    1       -4.826  -9.991 -16.535  0.00  0.00    -0.469 OA
ATOM     22  H   LIG    1       -5.562 -10.358 -16.025  0.00  0.00    +0.401 HD
ENDBRANCH   5  21
TORSDOF 8
ENDMDL
MODEL 6
REMARK VINA RESULT:      -5.2     11.470     12.832
REMARK  Name = CHEMBL353012
REMARK                            x       y       z     vdW  Elec       q    Type
REMARK                         _______ _______ _______ _____ _____    ______ ____
ROOT
ATOM      1  C   LIG    1        7.415  -5.978 -18.214  0.00  0.00    -0.095 A 
ATOM      2  C   LIG    1        6.934  -5.465 -17.000  0.00  0.00    +0.163 A 
ATOM      3  C   LIG    1        6.858  -4.104 -16.812  0.00  0.00    -0.069 A 
ATOM      4  C   LIG    1        7.255  -3.235 -17.821  0.00  0.00    +0.177 A 
ATOM      5  C   LIG    1        7.733  -3.736 -19.032  0.00  0.00    +0.090 A 
ATOM      6  C   LIG    1        7.819  -5.099 -19.230  0.00  0.00    +0.100 A 
ENDROOT
BRANCH   3   7
ATOM      7  N   LIG    1        6.351  -3.564 -15.530  0.00  0.00    +0.034 N 
ATOM      8  O   LIG    1        6.753  -4.014 -14.483  0.00  0.00    -0.127 OA
ATOM      9  O   LIG    1        5.535  -2.672 -15.531  0.00  0.00    -0.154 OA
ENDBRANCH   3   7
BRANCH   1  11
ATOM     10  C   LIG    1        6.414  -8.114 -18.923  0.00  0.00    -0.085 C 
ATOM     11  C   LIG    1        7.497  -7.426 -18.419  0.00  0.00    +0.258 C 
BRANCH  10  12
ATOM     12  C   LIG    1        6.435  -9.582 -18.973  0.00  0.00    +0.521 C 
ATOM     13  O   LIG    1        5.400 -10.199 -19.129  0.00  0.00    -0.487 OA
BRANCH  12  14
ATOM     14  O   LIG    1        7.603 -10.244 -18.845  0.00  0.00    -0.344 OA
BRANCH  14  16
ATOM     15  C   LIG    1        7.758 -12.170 -17.394  0.00  0.00    +0.065 C 
ATOM     16  C   LIG    1        7.539 -11.672 -18.824  0.00  0.00    +0.210 C 
ENDBRANCH  14  16
ENDBRANCH  12  14
ENDBRANCH  10  12
BRANCH  10  17
ATOM     17  C   LIG    1        5.268  -7.397 -19.396  0.00  0.00    +0.244 C 
ATOM     18  N   LIG    1        4.358  -6.829 -19.771  0.00  0.00    -0.385 NA
ENDBRANCH  10  17
ENDBRANCH   1  11
BRANCH   4  19
ATOM     19  O   LIG    1        7.177  -1.893 -17.628  0.00  0.00    -0.457 OA
ATOM     20  H   LIG    1        7.890  -1.393 -18.049  0.00  0.00    +0.409 HD
ENDBRANCH   4  19
BRANCH   5  21
ATOM     21  O   LIG    1        8.119  -2.882 -20.017  0.00  0.00    -0.469 OA
ATOM     22  H   LIG    1        8.486  -2.048 -19.692  0.00  0.00    +0.401 HD
ENDBRANCH   5  21
TORSDOF 8
ENDMDL
MODEL 7
REMARK VINA RESULT:      -5.1      2.540      3.648
REMARK  Name = CHEMBL353012
REMARK                            x       y       z     vdW  Elec       q    Type
REMARK                         _______ _______ _______ _____ _____    ______ ____
ROOT
ATOM      1  C   LIG    1       -3.294 -13.424 -19.741  0.00  0.00    -0.095 A 
ATOM      2  C   LIG    1       -3.228 -12.027 -19.849  0.00  0.00    +0.163 A 
ATOM      3  C   LIG    1       -3.518 -11.239 -18.760  0.00  0.00    -0.069 A 
ATOM      4  C   LIG    1       -3.876 -11.823 -17.550  0.00  0.00    +0.177 A 
ATOM      5  C   LIG    1       -3.944 -13.211 -17.433  0.00  0.00    +0.090 A 
ATOM      6  C   LIG    1       -3.660 -14.011 -18.521  0.00  0.00    +0.100 A 
ENDROOT
BRANCH   3   7
ATOM      7  N   LIG    1       -3.449  -9.765 -18.876  0.00  0.00    +0.034 N 
ATOM      8  O   LIG    1       -4.245  -9.074 -18.285  0.00  0.00    -0.127 OA
ATOM      9  O   LIG    1       -2.596  -9.252 -19.562  0.00  0.00    -0.154 OA
ENDBRANCH   3   7
BRANCH   1  11
ATOM     10  C   LIG    1       -3.886 -14.368 -21.937  0.00  0.00    -0.085 C 
ATOM     11  C   LIG    1       -2.986 -14.267 -20.898  0.00  0.00    +0.258 C 
BRANCH  10  12
ATOM     12  C   LIG    1       -3.657 -15.338 -23.017  0.00  0.00    +0.521 C 
ATOM     13  O   LIG    1       -3.697 -14.977 -24.177  0.00  0.00    -0.487 OA
BRANCH  12  14
ATOM     14  O   LIG    1       -3.401 -16.628 -22.721  0.00  0.00    -0.344 OA
BRANCH  14  16
ATOM     15  C   LIG    1       -4.330 -17.949 -20.923  0.00  0.00    +0.065 C 
ATOM     16  C   LIG    1       -4.517 -17.443 -22.355  0.00  0.00    +0.210 C 
ENDBRANCH  14  16
ENDBRANCH  12  14
ENDBRANCH  10  12
BRANCH  10  17
ATOM     17  C   LIG    1       -5.047 -13.530 -21.962  0.00  0.00    +0.244 C 
ATOM     18  N   LIG    1       -5.968 -12.864 -21.982  0.00  0.00    -0.385 NA
ENDBRANCH  10  17
ENDBRANCH   1  11
BRANCH   4  19
ATOM     19  O   LIG    1       -4.162 -11.038 -16.479  0.00  0.00    -0.457 OA
ATOM     20  H   LIG    1       -3.421 -10.491 -16.184  0.00  0.00    +0.409 HD
ENDBRANCH   4  19
BRANCH   5  21
ATOM     21  O   LIG    1       -4.294 -13.776 -16.247  0.00  0.00    -0.469 OA
ATOM     22  H   LIG    1       -5.068 -13.372 -15.832  0.00  0.00    +0.401 HD
ENDBRANCH   5  21
TORSDOF 8
ENDMDL
MODEL 8
REMARK VINA RESULT:      -5.1     10.995     12.318
REMARK  Name = CHEMBL353012
REMARK                            x       y       z     vdW  Elec       q    Type
REMARK                         _______ _______ _______ _____ _____    ______ ____
ROOT
ATOM      1  C   LIG    1        7.231  -6.169 -18.298  0.00  0.00    -0.095 A 
ATOM      2  C   LIG    1        6.837  -5.602 -17.078  0.00  0.00    +0.163 A 
ATOM      3  C   LIG    1        6.867  -4.237 -16.913  0.00  0.00    -0.069 A 
ATOM      4  C   LIG    1        7.286  -3.416 -17.954  0.00  0.00    +0.177 A 
ATOM      5  C   LIG    1        7.679  -3.971 -19.172  0.00  0.00    +0.090 A 
ATOM      6  C   LIG    1        7.659  -5.340 -19.345  0.00  0.00    +0.100 A 
ENDROOT
BRANCH   3   7
ATOM      7  N   LIG    1        6.450  -3.639 -15.624  0.00  0.00    +0.034 N 
ATOM      8  O   LIG    1        6.800  -4.143 -14.583  0.00  0.00    -0.127 OA
ATOM      9  O   LIG    1        5.760  -2.646 -15.613  0.00  0.00    -0.154 OA
ENDBRANCH   3   7
BRANCH   1  11
ATOM     10  C   LIG    1        6.079  -8.230 -19.001  0.00  0.00    -0.085 C 
ATOM     11  C   LIG    1        7.201  -7.622 -18.477  0.00  0.00    +0.258 C 
BRANCH  10  12
ATOM     12  C   LIG    1        5.981  -9.695 -19.026  0.00  0.00    +0.521 C 
ATOM     13  O   LIG    1        6.980 -10.374 -18.890  0.00  0.00    -0.487 OA
BRANCH  12  14
ATOM     14  O   LIG    1        4.782 -10.288 -19.202  0.00  0.00    -0.344 OA
BRANCH  14  16
ATOM     15  C   LIG    1        3.293 -10.435 -21.099  0.00  0.00    +0.065 C 
ATOM     16  C   LIG    1        4.569 -10.965 -20.443  0.00  0.00    +0.210 C 
ENDBRANCH  14  16
ENDBRANCH  12  14
ENDBRANCH  10  12
BRANCH  10  17
ATOM     17  C   LIG    1        5.009  -7.431 -19.517  0.00  0.00    +0.244 C 
ATOM     18  N   LIG    1        4.159  -6.796 -19.926  0.00  0.00    -0.385 NA
ENDBRANCH  10  17
ENDBRANCH   1  11
BRANCH   4  19
ATOM     19  O   LIG    1        7.313  -2.069 -17.784  0.00  0.00    -0.457 OA
ATOM     20  H   LIG    1        7.920  -1.609 -18.381  0.00  0.00    +0.409 HD
ENDBRANCH   4  19
BRANCH   5  21
ATOM     21  O   LIG    1        8.087  -3.164 -20.186  0.00  0.00    -0.469 OA
ATOM     22  H   LIG    1        9.042  -3.009 -20.205  0.00  0.00    +0.401 HD
ENDBRANCH   5  21
TORSDOF 8
ENDMDL
MODEL 9
REMARK VINA RESULT:      -5.1      3.982      5.273
REMARK  Name = CHEMBL353012
REMARK                            x       y       z     vdW  Elec       q    Type
REMARK                         _______ _______ _______ _____ _____    ______ ____
ROOT
ATOM      1  C   LIG    1       -1.151  -9.275 -20.355  0.00  0.00    -0.095 A 
ATOM      2  C   LIG    1       -2.153  -9.171 -19.380  0.00  0.00    +0.163 A 
ATOM      3  C   LIG    1       -3.134 -10.132 -19.297  0.00  0.00    -0.069 A 
ATOM      4  C   LIG    1       -3.135 -11.208 -20.178  0.00  0.00    +0.177 A 
ATOM      5  C   LIG    1       -2.141 -11.320 -21.151  0.00  0.00    +0.090 A 
ATOM      6  C   LIG    1       -1.156 -10.359 -21.246  0.00  0.00    +0.100 A 
ENDROOT
BRANCH   3   7
ATOM      7  N   LIG    1       -4.192 -10.021 -18.267  0.00  0.00    +0.034 N 
ATOM      8  O   LIG    1       -4.658  -8.940 -17.993  0.00  0.00    -0.127 OA
ATOM      9  O   LIG    1       -4.588 -11.012 -17.699  0.00  0.00    -0.154 OA
ENDBRANCH   3   7
BRANCH   1  11
ATOM     10  C   LIG    1       -0.024  -7.447 -21.560  0.00  0.00    -0.085 C 
ATOM     11  C   LIG    1       -0.104  -8.255 -20.446  0.00  0.00    +0.258 C 
BRANCH  10  12
ATOM     12  C   LIG    1        1.119  -6.539 -21.730  0.00  0.00    +0.521 C 
ATOM     13  O   LIG    1        1.282  -5.957 -22.784  0.00  0.00    -0.487 OA
BRANCH  12  14
ATOM     14  O   LIG    1        1.987  -6.353 -20.715  0.00  0.00    -0.344 OA
BRANCH  14  16
ATOM     15  C   LIG    1        3.528  -8.196 -20.456  0.00  0.00    +0.065 C 
ATOM     16  C   LIG    1        3.341  -6.756 -20.937  0.00  0.00    +0.210 C 
ENDBRANCH  14  16
ENDBRANCH  12  14
ENDBRANCH  10  12
BRANCH  10  17
ATOM     17  C   LIG    1       -1.054  -7.495 -22.554  0.00  0.00    +0.244 C 
ATOM     18  N   LIG    1       -1.871  -7.531 -23.343  0.00  0.00    -0.385 NA
ENDBRANCH  10  17
ENDBRANCH   1  11
BRANCH   4  19
ATOM     19  O   LIG    1       -4.106 -12.152 -20.090  0.00  0.00    -0.457 OA
ATOM     20  H   LIG    1       -4.501 -12.391 -20.941  0.00  0.00    +0.409 HD
ENDBRANCH   4  19
BRANCH   5  21
ATOM     21  O   LIG    1       -2.147 -12.374 -22.009  0.00  0.00    -0.469 OA
ATOM     22  H   LIG    1       -2.603 -12.200 -22.843  0.00  0.00    +0.401 HD
ENDBRANCH   5  21
TORSDOF 8
ENDMDL
