MODEL 1
REMARK VINA RESULT:      -5.5      0.000      0.000
REMARK  Name = CHEMBL166486
REMARK                            x       y       z     vdW  Elec       q    Type
REMARK                         _______ _______ _______ _____ _____    ______ ____
ROOT
ATOM      1  C   LIG    1       -4.091 -10.391 -18.827  0.00  0.00    +0.189 A 
ATOM      2  C   LIG    1       -3.450 -11.568 -19.237  0.00  0.00    -0.235 A 
ATOM      3  C   LIG    1       -3.506 -12.710 -18.425  0.00  0.00    +0.080 A 
ATOM      4  C   LIG    1       -4.193 -12.668 -17.229  0.00  0.00    -0.009 A 
ATOM      5  C   LIG    1       -4.828 -11.492 -16.829  0.00  0.00    +0.308 A 
ATOM      6  O   LIG    1       -5.503 -11.454 -15.652  0.00  0.00    -0.596 OA
ATOM      7  C   LIG    1       -4.773 -10.360 -17.633  0.00  0.00    -0.196 A 
ENDROOT
BRANCH   7   8
ATOM      8  N   LIG    1       -5.449  -9.115 -17.201  0.00  0.00    +0.068 N 
ATOM      9  O   LIG    1       -6.534  -9.170 -16.670  0.00  0.00    -0.153 OA
ATOM     10  O   LIG    1       -4.918  -8.044 -17.382  0.00  0.00    -0.244 OA
ENDBRANCH   7   8
BRANCH   2  11
ATOM     11  C   LIG    1       -2.724 -11.607 -20.509  0.00  0.00    +0.273 C 
ATOM     12  C   LIG    1       -3.319 -12.148 -21.625  0.00  0.00    -0.081 C 
BRANCH  12  13
ATOM     13  C   LIG    1       -2.561 -12.319 -22.829  0.00  0.00    +0.277 C 
ATOM     14  N   LIG    1       -1.961 -12.454 -23.784  0.00  0.00    -0.429 NA
ENDBRANCH  12  13
BRANCH  12  15
ATOM     15  C   LIG    1       -4.696 -12.540 -21.584  0.00  0.00    +0.267 C 
ATOM     16  N   LIG    1       -5.787 -12.851 -21.552  0.00  0.00    -0.415 NA
ENDBRANCH  12  15
ENDBRANCH   2  11
BRANCH   4  17
ATOM     17  O   LIG    1       -4.250 -13.773 -16.439  0.00  0.00    -0.477 OA
ATOM     18  H   LIG    1       -4.081 -14.602 -16.908  0.00  0.00    +0.372 HD
ENDBRANCH   4  17
TORSDOF 5
ENDMDL
MODEL 2
REMARK VINA RESULT:      -5.2      2.967      3.444
REMARK  Name = CHEMBL166486
REMARK                            x       y       z     vdW  Elec       q    Type
REMARK                         _______ _______ _______ _____ _____    ______ ____
ROOT
ATOM      1  C   LIG    1       -3.121 -12.856 -19.318  0.00  0.00    +0.189 A 
ATOM      2  C   LIG    1       -3.381 -13.941 -18.469  0.00  0.00    -0.235 A 
ATOM      3  C   LIG    1       -4.055 -13.731 -17.257  0.00  0.00    +0.080 A 
ATOM      4  C   LIG    1       -4.458 -12.459 -16.908  0.00  0.00    -0.009 A 
ATOM      5  C   LIG    1       -4.195 -11.384 -17.759  0.00  0.00    +0.308 A 
ATOM      6  O   LIG    1       -4.593 -10.134 -17.412  0.00  0.00    -0.596 OA
ATOM      7  C   LIG    1       -3.528 -11.591 -18.960  0.00  0.00    -0.196 A 
ENDROOT
BRANCH   7   8
ATOM      8  N   LIG    1       -3.251 -10.446 -19.857  0.00  0.00    +0.068 N 
ATOM      9  O   LIG    1       -3.945 -10.260 -20.830  0.00  0.00    -0.153 OA
ATOM     10  O   LIG    1       -2.332  -9.699 -19.617  0.00  0.00    -0.244 OA
ENDBRANCH   7   8
BRANCH   2  11
ATOM     11  C   LIG    1       -2.952 -15.290 -18.846  0.00  0.00    +0.273 C 
ATOM     12  C   LIG    1       -3.290 -15.801 -20.078  0.00  0.00    -0.081 C 
BRANCH  12  13
ATOM     13  C   LIG    1       -2.998 -17.168 -20.391  0.00  0.00    +0.277 C 
ATOM     14  N   LIG    1       -2.765 -18.252 -20.639  0.00  0.00    -0.429 NA
ENDBRANCH  12  13
BRANCH  12  15
ATOM     15  C   LIG    1       -3.934 -14.966 -21.048  0.00  0.00    +0.267 C 
ATOM     16  N   LIG    1       -4.445 -14.304 -21.817  0.00  0.00    -0.415 NA
ENDBRANCH  12  15
ENDBRANCH   2  11
BRANCH   4  17
ATOM     17  O   LIG    1       -5.112 -12.250 -15.734  0.00  0.00    -0.477 OA
ATOM     18  H   LIG    1       -4.678 -12.648 -14.966  0.00  0.00    +0.372 HD
ENDBRANCH   4  17
TORSDOF 5
ENDMDL
MODEL 3
REMARK VINA RESULT:      -5.2      1.958      3.279
REMARK  Name = CHEMBL166486
REMARK                            x       y       z     vdW  Elec       q    Type
REMARK                         _______ _______ _______ _____ _____    ______ ____
ROOT
ATOM      1  C   LIG    1       -3.113 -11.497 -18.891  0.00  0.00    +0.189 A 
ATOM      2  C   LIG    1       -3.179 -10.138 -19.231  0.00  0.00    -0.235 A 
ATOM      3  C   LIG    1       -4.022  -9.280 -18.512  0.00  0.00    +0.080 A 
ATOM      4  C   LIG    1       -4.781  -9.778 -17.473  0.00  0.00    -0.009 A 
ATOM      5  C   LIG    1       -4.710 -11.131 -17.141  0.00  0.00    +0.308 A 
ATOM      6  O   LIG    1       -5.459 -11.617 -16.118  0.00  0.00    -0.596 OA
ATOM      7  C   LIG    1       -3.875 -11.982 -17.854  0.00  0.00    -0.196 A 
ENDROOT
BRANCH   7   8
ATOM      8  N   LIG    1       -3.806 -13.417 -17.496  0.00  0.00    +0.068 N 
ATOM      9  O   LIG    1       -3.737 -13.748 -16.335  0.00  0.00    -0.153 OA
ATOM     10  O   LIG    1       -3.817 -14.258 -18.365  0.00  0.00    -0.244 OA
ENDBRANCH   7   8
BRANCH   2  11
ATOM     11  C   LIG    1       -2.368  -9.616 -20.335  0.00  0.00    +0.273 C 
ATOM     12  C   LIG    1       -2.706  -9.910 -21.636  0.00  0.00    -0.081 C 
BRANCH  12  13
ATOM     13  C   LIG    1       -1.835  -9.524 -22.706  0.00  0.00    +0.277 C 
ATOM     14  N   LIG    1       -1.144  -9.217 -23.555  0.00  0.00    -0.429 NA
ENDBRANCH  12  13
BRANCH  12  15
ATOM     15  C   LIG    1       -3.927 -10.601 -21.921  0.00  0.00    +0.267 C 
ATOM     16  N   LIG    1       -4.896 -11.150 -22.147  0.00  0.00    -0.415 NA
ENDBRANCH  12  15
ENDBRANCH   2  11
BRANCH   4  17
ATOM     17  O   LIG    1       -5.600  -8.948 -16.772  0.00  0.00    -0.477 OA
ATOM     18  H   LIG    1       -5.810  -9.263 -15.881  0.00  0.00    +0.372 HD
ENDBRANCH   4  17
TORSDOF 5
ENDMDL
MODEL 4
REMARK VINA RESULT:      -5.2      4.049      5.103
REMARK  Name = CHEMBL166486
REMARK                            x       y       z     vdW  Elec       q    Type
REMARK                         _______ _______ _______ _____ _____    ______ ____
ROOT
ATOM      1  C   LIG    1       -2.256  -9.484 -19.432  0.00  0.00    +0.189 A 
ATOM      2  C   LIG    1       -1.755  -9.053 -20.668  0.00  0.00    -0.235 A 
ATOM      3  C   LIG    1       -2.221  -9.643 -21.852  0.00  0.00    +0.080 A 
ATOM      4  C   LIG    1       -3.169 -10.643 -21.792  0.00  0.00    -0.009 A 
ATOM      5  C   LIG    1       -3.662 -11.066 -20.558  0.00  0.00    +0.308 A 
ATOM      6  O   LIG    1       -4.596 -12.050 -20.503  0.00  0.00    -0.596 OA
ATOM      7  C   LIG    1       -3.202 -10.482 -19.384  0.00  0.00    -0.196 A 
ENDROOT
BRANCH   7   8
ATOM      8  N   LIG    1       -3.729 -10.937 -18.077  0.00  0.00    +0.068 N 
ATOM      9  O   LIG    1       -4.508 -10.243 -17.465  0.00  0.00    -0.153 OA
ATOM     10  O   LIG    1       -3.380 -12.002 -17.622  0.00  0.00    -0.244 OA
ENDBRANCH   7   8
BRANCH   2  11
ATOM     11  C   LIG    1       -0.749  -7.989 -20.724  0.00  0.00    +0.273 C 
ATOM     12  C   LIG    1        0.576  -8.305 -20.920  0.00  0.00    -0.081 C 
BRANCH  12  13
ATOM     13  C   LIG    1        1.576  -7.283 -20.830  0.00  0.00    +0.277 C 
ATOM     14  N   LIG    1        2.369  -6.473 -20.757  0.00  0.00    -0.429 NA
ENDBRANCH  12  13
BRANCH  12  15
ATOM     15  C   LIG    1        0.956  -9.654 -21.215  0.00  0.00    +0.267 C 
ATOM     16  N   LIG    1        1.257 -10.723 -21.450  0.00  0.00    -0.415 NA
ENDBRANCH  12  15
ENDBRANCH   2  11
BRANCH   4  17
ATOM     17  O   LIG    1       -3.624 -11.218 -22.938  0.00  0.00    -0.477 OA
ATOM     18  H   LIG    1       -4.206 -10.649 -23.460  0.00  0.00    +0.372 HD
ENDBRANCH   4  17
TORSDOF 5
ENDMDL
MODEL 5
REMARK VINA RESULT:      -5.1      2.167      2.716
REMARK  Name = CHEMBL166486
REMARK                            x       y       z     vdW  Elec       q    Type
REMARK                         _______ _______ _______ _____ _____    ______ ____
ROOT
ATOM      1  C   LIG    1       -4.338 -10.923 -19.053  0.00  0.00    +0.189 A 
ATOM      2  C   LIG    1       -3.781 -11.617 -20.136  0.00  0.00    -0.235 A 
ATOM      3  C   LIG    1       -3.330 -12.933 -19.962  0.00  0.00    +0.080 A 
ATOM      4  C   LIG    1       -3.437 -13.537 -18.727  0.00  0.00    -0.009 A 
ATOM      5  C   LIG    1       -3.992 -12.839 -17.654  0.00  0.00    +0.308 A 
ATOM      6  O   LIG    1       -4.096 -13.436 -16.439  0.00  0.00    -0.596 OA
ATOM      7  C   LIG    1       -4.440 -11.535 -17.825  0.00  0.00    -0.196 A 
ENDROOT
BRANCH   7   8
ATOM      8  N   LIG    1       -5.026 -10.800 -16.681  0.00  0.00    +0.068 N 
ATOM      9  O   LIG    1       -5.598 -11.405 -15.804  0.00  0.00    -0.153 OA
ATOM     10  O   LIG    1       -4.935  -9.596 -16.625  0.00  0.00    -0.244 OA
ENDBRANCH   7   8
BRANCH   2  11
ATOM     11  C   LIG    1       -3.672 -10.970 -21.447  0.00  0.00    +0.273 C 
ATOM     12  C   LIG    1       -2.750  -9.968 -21.645  0.00  0.00    -0.081 C 
BRANCH  12  13
ATOM     13  C   LIG    1       -2.741  -9.238 -22.877  0.00  0.00    +0.277 C 
ATOM     14  N   LIG    1       -2.735  -8.658 -23.854  0.00  0.00    -0.429 NA
ENDBRANCH  12  13
BRANCH  12  15
ATOM     15  C   LIG    1       -1.799  -9.656 -20.621  0.00  0.00    +0.267 C 
ATOM     16  N   LIG    1       -1.045  -9.410 -19.808  0.00  0.00    -0.415 NA
ENDBRANCH  12  15
ENDBRANCH   2  11
BRANCH   4  17
ATOM     17  O   LIG    1       -3.001 -14.814 -18.554  0.00  0.00    -0.477 OA
ATOM     18  H   LIG    1       -2.043 -14.891 -18.447  0.00  0.00    +0.372 HD
ENDBRANCH   4  17
TORSDOF 5
ENDMDL
MODEL 6
REMARK VINA RESULT:      -5.0      2.630      4.331
REMARK  Name = CHEMBL166486
REMARK                            x       y       z     vdW  Elec       q    Type
REMARK                         _______ _______ _______ _____ _____    ______ ____
ROOT
ATOM      1  C   LIG    1       -3.334 -13.231 -20.100  0.00  0.00    +0.189 A 
ATOM      2  C   LIG    1       -3.784 -11.904 -20.113  0.00  0.00    -0.235 A 
ATOM      3  C   LIG    1       -4.211 -11.301 -18.921  0.00  0.00    +0.080 A 
ATOM      4  C   LIG    1       -4.185 -12.019 -17.743  0.00  0.00    -0.009 A 
ATOM      5  C   LIG    1       -3.736 -13.340 -17.739  0.00  0.00    +0.308 A 
ATOM      6  O   LIG    1       -3.712 -14.043 -16.578  0.00  0.00    -0.596 OA
ATOM      7  C   LIG    1       -3.313 -13.938 -18.920  0.00  0.00    -0.196 A 
ENDROOT
BRANCH   7   8
ATOM      8  N   LIG    1       -2.839 -15.341 -18.908  0.00  0.00    +0.068 N 
ATOM      9  O   LIG    1       -3.489 -16.202 -19.454  0.00  0.00    -0.153 OA
ATOM     10  O   LIG    1       -1.803 -15.624 -18.352  0.00  0.00    -0.244 OA
ENDBRANCH   7   8
BRANCH   2  11
ATOM     11  C   LIG    1       -3.807 -11.147 -21.368  0.00  0.00    +0.273 C 
ATOM     12  C   LIG    1       -2.895 -10.138 -21.580  0.00  0.00    -0.081 C 
BRANCH  12  13
ATOM     13  C   LIG    1       -3.008  -9.304 -22.739  0.00  0.00    +0.277 C 
ATOM     14  N   LIG    1       -3.098  -8.641 -23.657  0.00  0.00    -0.429 NA
ENDBRANCH  12  13
BRANCH  12  15
ATOM     15  C   LIG    1       -1.834  -9.923 -20.644  0.00  0.00    +0.267 C 
ATOM     16  N   LIG    1       -0.992  -9.752 -19.901  0.00  0.00    -0.415 NA
ENDBRANCH  12  15
ENDBRANCH   2  11
BRANCH   4  17
ATOM     17  O   LIG    1       -4.598 -11.439 -16.584  0.00  0.00    -0.477 OA
ATOM     18  H   LIG    1       -5.555 -11.315 -16.525  0.00  0.00    +0.372 HD
ENDBRANCH   4  17
TORSDOF 5
ENDMDL
MODEL 7
REMARK VINA RESULT:      -4.9      2.407      3.968
REMARK  Name = CHEMBL166486
REMARK                            x       y       z     vdW  Elec       q    Type
REMARK                         _______ _______ _______ _____ _____    ______ ____
ROOT
ATOM      1  C   LIG    1       -3.204 -13.077 -19.769  0.00  0.00    +0.189 A 
ATOM      2  C   LIG    1       -3.680 -11.774 -19.569  0.00  0.00    -0.235 A 
ATOM      3  C   LIG    1       -4.248 -11.421 -18.336  0.00  0.00    +0.080 A 
ATOM      4  C   LIG    1       -4.333 -12.358 -17.328  0.00  0.00    -0.009 A 
ATOM      5  C   LIG    1       -3.857 -13.653 -17.535  0.00  0.00    +0.308 A 
ATOM      6  O   LIG    1       -3.942 -14.573 -16.541  0.00  0.00    -0.596 OA
ATOM      7  C   LIG    1       -3.294 -14.004 -18.757  0.00  0.00    -0.196 A 
ENDROOT
BRANCH   7   8
ATOM      8  N   LIG    1       -2.792 -15.380 -18.970  0.00  0.00    +0.068 N 
ATOM      9  O   LIG    1       -1.758 -15.733 -18.451  0.00  0.00    -0.153 OA
ATOM     10  O   LIG    1       -3.415 -16.151 -19.663  0.00  0.00    -0.244 OA
ENDBRANCH   7   8
BRANCH   2  11
ATOM     11  C   LIG    1       -3.585 -10.782 -20.644  0.00  0.00    +0.273 C 
ATOM     12  C   LIG    1       -4.279 -10.970 -21.818  0.00  0.00    -0.081 C 
BRANCH  12  13
ATOM     13  C   LIG    1       -4.073 -10.080 -22.921  0.00  0.00    +0.277 C 
ATOM     14  N   LIG    1       -3.909  -9.374 -23.796  0.00  0.00    -0.429 NA
ENDBRANCH  12  13
BRANCH  12  15
ATOM     15  C   LIG    1       -5.206 -12.055 -21.936  0.00  0.00    +0.267 C 
ATOM     16  N   LIG    1       -5.942 -12.915 -22.029  0.00  0.00    -0.415 NA
ENDBRANCH  12  15
ENDBRANCH   2  11
BRANCH   4  17
ATOM     17  O   LIG    1       -4.882 -12.021 -16.130  0.00  0.00    -0.477 OA
ATOM     18  H   LIG    1       -5.015 -11.070 -16.012  0.00  0.00    +0.372 HD
ENDBRANCH   4  17
TORSDOF 5
ENDMDL
MODEL 8
REMARK VINA RESULT:      -4.7      4.467      5.555
REMARK  Name = CHEMBL166486
REMARK                            x       y       z     vdW  Elec       q    Type
REMARK                         _______ _______ _______ _____ _____    ______ ____
ROOT
ATOM      1  C   LIG    1       -2.331  -9.443 -21.879  0.00  0.00    +0.189 A 
ATOM      2  C   LIG    1       -1.673  -9.089 -20.693  0.00  0.00    -0.235 A 
ATOM      3  C   LIG    1       -1.984  -9.754 -19.498  0.00  0.00    +0.080 A 
ATOM      4  C   LIG    1       -2.936 -10.753 -19.498  0.00  0.00    -0.009 A 
ATOM      5  C   LIG    1       -3.587 -11.099 -20.682  0.00  0.00    +0.308 A 
ATOM      6  O   LIG    1       -4.522 -12.082 -20.678  0.00  0.00    -0.596 OA
ATOM      7  C   LIG    1       -3.278 -10.441 -21.867  0.00  0.00    -0.196 A 
ENDROOT
BRANCH   7   8
ATOM      8  N   LIG    1       -3.974 -10.813 -23.120  0.00  0.00    +0.068 N 
ATOM      9  O   LIG    1       -3.511 -11.672 -23.835  0.00  0.00    -0.153 OA
ATOM     10  O   LIG    1       -5.002 -10.258 -23.429  0.00  0.00    -0.244 OA
ENDBRANCH   7   8
BRANCH   2  11
ATOM     11  C   LIG    1       -0.661  -8.029 -20.701  0.00  0.00    +0.273 C 
ATOM     12  C   LIG    1        0.660  -8.339 -20.928  0.00  0.00    -0.081 C 
BRANCH  12  13
ATOM     13  C   LIG    1        1.666  -7.328 -20.792  0.00  0.00    +0.277 C 
ATOM     14  N   LIG    1        2.463  -6.526 -20.684  0.00  0.00    -0.429 NA
ENDBRANCH  12  13
BRANCH  12  15
ATOM     15  C   LIG    1        1.029  -9.672 -21.299  0.00  0.00    +0.267 C 
ATOM     16  N   LIG    1        1.322 -10.729 -21.594  0.00  0.00    -0.415 NA
ENDBRANCH  12  15
ENDBRANCH   2  11
BRANCH   4  17
ATOM     17  O   LIG    1       -3.241 -11.400 -18.341  0.00  0.00    -0.477 OA
ATOM     18  H   LIG    1       -2.594 -12.071 -18.083  0.00  0.00    +0.372 HD
ENDBRANCH   4  17
TORSDOF 5
ENDMDL
MODEL 9
REMARK VINA RESULT:      -4.6      4.314      4.967
REMARK  Name = CHEMBL166486
REMARK                            x       y       z     vdW  Elec       q    Type
REMARK                         _______ _______ _______ _____ _____    ______ ____
ROOT
ATOM      1  C   LIG    1       -2.603 -14.454 -20.262  0.00  0.00    +0.189 A 
ATOM      2  C   LIG    1       -2.478 -15.376 -19.213  0.00  0.00    -0.235 A 
ATOM      3  C   LIG    1       -3.063 -15.100 -17.969  0.00  0.00    +0.080 A 
ATOM      4  C   LIG    1       -3.758 -13.923 -17.785  0.00  0.00    -0.009 A 
ATOM      5  C   LIG    1       -3.878 -13.010 -18.834  0.00  0.00    +0.308 A 
ATOM      6  O   LIG    1       -4.562 -11.853 -18.648  0.00  0.00    -0.596 OA
ATOM      7  C   LIG    1       -3.299 -13.283 -20.067  0.00  0.00    -0.196 A 
ENDROOT
BRANCH   7   8
ATOM      8  N   LIG    1       -3.429 -12.310 -21.175  0.00  0.00    +0.068 N 
ATOM      9  O   LIG    1       -2.598 -11.443 -21.318  0.00  0.00    -0.153 OA
ATOM     10  O   LIG    1       -4.367 -12.380 -21.934  0.00  0.00    -0.244 OA
ENDBRANCH   7   8
BRANCH   2  11
ATOM     11  C   LIG    1       -1.739 -16.626 -19.417  0.00  0.00    +0.273 C 
ATOM     12  C   LIG    1       -2.313 -17.657 -20.125  0.00  0.00    -0.081 C 
BRANCH  12  13
ATOM     13  C   LIG    1       -1.654 -18.927 -20.200  0.00  0.00    +0.277 C 
ATOM     14  N   LIG    1       -1.132 -19.934 -20.258  0.00  0.00    -0.429 NA
ENDBRANCH  12  13
BRANCH  12  15
ATOM     15  C   LIG    1       -3.567 -17.461 -20.787  0.00  0.00    +0.267 C 
ATOM     16  N   LIG    1       -4.563 -17.306 -21.312  0.00  0.00    -0.415 NA
ENDBRANCH  12  15
ENDBRANCH   2  11
BRANCH   4  17
ATOM     17  O   LIG    1       -4.327 -13.651 -16.580  0.00  0.00    -0.477 OA
ATOM     18  H   LIG    1       -4.784 -12.799 -16.543  0.00  0.00    +0.372 HD
ENDBRANCH   4  17
TORSDOF 5
ENDMDL
