MODEL 1
REMARK VINA RESULT:      -6.7      0.000      0.000
REMARK  Name = CHEMBL953
REMARK                            x       y       z     vdW  Elec       q    Type
REMARK                         _______ _______ _______ _____ _____    ______ ____
ROOT
ATOM      1  C   LIG    1       -3.990   0.252 -20.120  0.00  0.00    -0.089 A 
ATOM      2  C   LIG    1       -4.747   0.880 -19.120  0.00  0.00    +0.159 A 
ATOM      3  C   LIG    1       -5.789   0.208 -18.522  0.00  0.00    -0.068 A 
ATOM      4  C   LIG    1       -6.093  -1.092 -18.906  0.00  0.00    +0.174 A 
ATOM      5  C   LIG    1       -5.346  -1.725 -19.900  0.00  0.00    +0.090 A 
ATOM      6  C   LIG    1       -4.303  -1.058 -20.510  0.00  0.00    +0.094 A 
ENDROOT
BRANCH   3   7
ATOM      7  N   LIG    1       -6.586   0.872 -17.467  0.00  0.00    +0.034 N 
ATOM      8  O   LIG    1       -7.305   1.803 -17.748  0.00  0.00    -0.128 OA
ATOM      9  O   LIG    1       -6.518   0.485 -16.324  0.00  0.00    -0.154 OA
ENDBRANCH   3   7
BRANCH   1  11
ATOM     10  C   LIG    1       -2.637   0.794 -22.104  0.00  0.00    -0.114 C 
ATOM     11  C   LIG    1       -2.881   0.964 -20.758  0.00  0.00    +0.242 C 
BRANCH  10  13
ATOM     12  N   LIG    1       -0.298   0.650 -22.790  0.00  0.00    -0.604 N 
ATOM     13  C   LIG    1       -1.431   1.377 -22.712  0.00  0.00    +0.572 C 
ATOM     14  O   LIG    1       -1.454   2.514 -23.142  0.00  0.00    -0.518 OA
BRANCH  12  16
ATOM     15  C   LIG    1        2.078   0.973 -22.308  0.00  0.00    +0.019 C 
ATOM     16  C   LIG    1        0.936   1.268 -23.282  0.00  0.00    +0.280 C 
ENDBRANCH  12  16
BRANCH  12  17
ATOM     17  C   LIG    1       -0.301  -0.758 -22.385  0.00  0.00    +0.261 C 
ATOM     18  C   LIG    1       -0.000  -1.638 -23.600  0.00  0.00    +0.019 C 
ENDBRANCH  12  17
ENDBRANCH  10  13
BRANCH  10  19
ATOM     19  C   LIG    1       -3.559   0.053 -22.910  0.00  0.00    +0.250 C 
ATOM     20  N   LIG    1       -4.289  -0.537 -23.551  0.00  0.00    -0.399 NA
ENDBRANCH  10  19
ENDBRANCH   1  11
BRANCH   4  21
ATOM     21  O   LIG    1       -7.122  -1.749 -18.312  0.00  0.00    -0.458 OA
ATOM     22  H   LIG    1       -7.876  -1.909 -18.896  0.00  0.00    +0.408 HD
ENDBRANCH   4  21
BRANCH   5  23
ATOM     23  O   LIG    1       -5.647  -2.997 -20.271  0.00  0.00    -0.469 OA
ATOM     24  H   LIG    1       -5.009  -3.391 -20.881  0.00  0.00    +0.400 HD
ENDBRANCH   5  23
TORSDOF 8
ENDMDL
MODEL 2
REMARK VINA RESULT:      -6.7     10.079     11.727
REMARK  Name = CHEMBL953
REMARK                            x       y       z     vdW  Elec       q    Type
REMARK                         _______ _______ _______ _____ _____    ______ ____
ROOT
ATOM      1  C   LIG    1       -3.487 -11.502 -19.125  0.00  0.00    -0.089 A 
ATOM      2  C   LIG    1       -4.161 -10.370 -18.646  0.00  0.00    +0.159 A 
ATOM      3  C   LIG    1       -4.848 -10.432 -17.454  0.00  0.00    -0.068 A 
ATOM      4  C   LIG    1       -4.875 -11.614 -16.725  0.00  0.00    +0.174 A 
ATOM      5  C   LIG    1       -4.207 -12.745 -17.194  0.00  0.00    +0.090 A 
ATOM      6  C   LIG    1       -3.520 -12.695 -18.390  0.00  0.00    +0.094 A 
ENDROOT
BRANCH   3   7
ATOM      7  N   LIG    1       -5.559  -9.237 -16.950  0.00  0.00    +0.034 N 
ATOM      8  O   LIG    1       -5.076  -8.138 -17.097  0.00  0.00    -0.128 OA
ATOM      9  O   LIG    1       -6.624  -9.358 -16.389  0.00  0.00    -0.154 OA
ENDBRANCH   3   7
BRANCH   1  11
ATOM     10  C   LIG    1       -3.308 -11.978 -21.534  0.00  0.00    -0.114 C 
ATOM     11  C   LIG    1       -2.755 -11.439 -20.392  0.00  0.00    +0.242 C 
BRANCH  10  13
ATOM     12  N   LIG    1       -2.597 -11.087 -23.694  0.00  0.00    -0.604 N 
ATOM     13  C   LIG    1       -2.510 -12.063 -22.767  0.00  0.00    +0.572 C 
ATOM     14  O   LIG    1       -1.772 -13.012 -22.951  0.00  0.00    -0.518 OA
BRANCH  12  16
ATOM     15  C   LIG    1       -2.919 -11.246 -26.113  0.00  0.00    +0.019 C 
ATOM     16  C   LIG    1       -1.899 -11.229 -24.974  0.00  0.00    +0.280 C 
ENDBRANCH  12  16
BRANCH  12  17
ATOM     17  C   LIG    1       -3.388  -9.885 -23.421  0.00  0.00    +0.261 C 
ATOM     18  C   LIG    1       -2.450  -8.712 -23.132  0.00  0.00    +0.019 C 
ENDBRANCH  12  17
ENDBRANCH  10  13
BRANCH  10  19
ATOM     19  C   LIG    1       -4.658 -12.455 -21.520  0.00  0.00    +0.250 C 
ATOM     20  N   LIG    1       -5.728 -12.834 -21.509  0.00  0.00    -0.399 NA
ENDBRANCH  10  19
ENDBRANCH   1  11
BRANCH   4  21
ATOM     21  O   LIG    1       -5.554 -11.668 -15.550  0.00  0.00    -0.458 OA
ATOM     22  H   LIG    1       -5.027 -11.991 -14.806  0.00  0.00    +0.408 HD
ENDBRANCH   4  21
BRANCH   5  23
ATOM     23  O   LIG    1       -4.235 -13.899 -16.476  0.00  0.00    -0.469 OA
ATOM     24  H   LIG    1       -4.046 -14.692 -16.996  0.00  0.00    +0.400 HD
ENDBRANCH   5  23
TORSDOF 8
ENDMDL
MODEL 3
REMARK VINA RESULT:      -6.5     10.927     12.508
REMARK  Name = CHEMBL953
REMARK                            x       y       z     vdW  Elec       q    Type
REMARK                         _______ _______ _______ _____ _____    ______ ____
ROOT
ATOM      1  C   LIG    1       -3.459 -11.680 -19.186  0.00  0.00    -0.089 A 
ATOM      2  C   LIG    1       -4.101 -10.510 -18.756  0.00  0.00    +0.159 A 
ATOM      3  C   LIG    1       -4.784 -10.500 -17.561  0.00  0.00    -0.068 A 
ATOM      4  C   LIG    1       -4.839 -11.648 -16.779  0.00  0.00    +0.174 A 
ATOM      5  C   LIG    1       -4.204 -12.816 -17.199  0.00  0.00    +0.090 A 
ATOM      6  C   LIG    1       -3.521 -12.839 -18.398  0.00  0.00    +0.094 A 
ENDROOT
BRANCH   3   7
ATOM      7  N   LIG    1       -5.460  -9.265 -17.108  0.00  0.00    +0.034 N 
ATOM      8  O   LIG    1       -6.539  -9.330 -16.565  0.00  0.00    -0.128 OA
ATOM      9  O   LIG    1       -4.935  -8.190 -17.281  0.00  0.00    -0.154 OA
ENDBRANCH   3   7
BRANCH   1  11
ATOM     10  C   LIG    1       -3.333 -12.198 -21.590  0.00  0.00    -0.114 C 
ATOM     11  C   LIG    1       -2.731 -11.694 -20.457  0.00  0.00    +0.242 C 
BRANCH  10  13
ATOM     12  N   LIG    1       -1.875 -13.508 -23.045  0.00  0.00    -0.604 N 
ATOM     13  C   LIG    1       -2.552 -12.363 -22.826  0.00  0.00    +0.572 C 
ATOM     14  O   LIG    1       -2.517 -11.469 -23.648  0.00  0.00    -0.518 OA
BRANCH  12  16
ATOM     15  C   LIG    1       -1.633 -14.581 -25.230  0.00  0.00    +0.019 C 
ATOM     16  C   LIG    1       -1.000 -13.628 -24.214  0.00  0.00    +0.280 C 
ENDBRANCH  12  16
BRANCH  12  17
ATOM     17  C   LIG    1       -2.014 -14.633 -22.117  0.00  0.00    +0.261 C 
ATOM     18  C   LIG    1       -0.706 -14.823 -21.346  0.00  0.00    +0.019 C 
ENDBRANCH  12  17
ENDBRANCH  10  13
BRANCH  10  19
ATOM     19  C   LIG    1       -4.719 -12.559 -21.564  0.00  0.00    +0.250 C 
ATOM     20  N   LIG    1       -5.817 -12.846 -21.545  0.00  0.00    -0.399 NA
ENDBRANCH  10  19
ENDBRANCH   1  11
BRANCH   4  21
ATOM     21  O   LIG    1       -5.515 -11.631 -15.601  0.00  0.00    -0.458 OA
ATOM     22  H   LIG    1       -5.437 -12.450 -15.091  0.00  0.00    +0.408 HD
ENDBRANCH   4  21
BRANCH   5  23
ATOM     23  O   LIG    1       -4.261 -13.936 -16.430  0.00  0.00    -0.469 OA
ATOM     24  H   LIG    1       -3.539 -14.013 -15.792  0.00  0.00    +0.400 HD
ENDBRANCH   5  23
TORSDOF 8
ENDMDL
MODEL 4
REMARK VINA RESULT:      -6.4      9.642     11.231
REMARK  Name = CHEMBL953
REMARK                            x       y       z     vdW  Elec       q    Type
REMARK                         _______ _______ _______ _____ _____    ______ ____
ROOT
ATOM      1  C   LIG    1       -3.393 -10.091 -18.885  0.00  0.00    -0.089 A 
ATOM      2  C   LIG    1       -3.247 -11.459 -18.617  0.00  0.00    +0.159 A 
ATOM      3  C   LIG    1       -4.012 -12.054 -17.639  0.00  0.00    -0.068 A 
ATOM      4  C   LIG    1       -4.929 -11.301 -16.917  0.00  0.00    +0.174 A 
ATOM      5  C   LIG    1       -5.081  -9.939 -17.176  0.00  0.00    +0.090 A 
ATOM      6  C   LIG    1       -4.315  -9.332 -18.150  0.00  0.00    +0.094 A 
ENDROOT
BRANCH   3   7
ATOM      7  N   LIG    1       -3.857 -13.498 -17.358  0.00  0.00    +0.034 N 
ATOM      8  O   LIG    1       -3.861 -13.896 -16.216  0.00  0.00    -0.128 OA
ATOM      9  O   LIG    1       -3.726 -14.281 -18.270  0.00  0.00    -0.154 OA
ENDBRANCH   3   7
BRANCH   1  11
ATOM     10  C   LIG    1       -2.759  -9.802 -21.247  0.00  0.00    -0.114 C 
ATOM     11  C   LIG    1       -2.580  -9.455 -19.924  0.00  0.00    +0.242 C 
BRANCH  10  13
ATOM     12  N   LIG    1       -0.661  -9.910 -22.491  0.00  0.00    -0.604 N 
ATOM     13  C   LIG    1       -1.837  -9.289 -22.272  0.00  0.00    +0.572 C 
ATOM     14  O   LIG    1       -2.135  -8.305 -22.922  0.00  0.00    -0.518 OA
BRANCH  12  16
ATOM     15  C   LIG    1        1.384  -8.575 -22.639  0.00  0.00    +0.019 C 
ATOM     16  C   LIG    1        0.310  -9.332 -23.423  0.00  0.00    +0.280 C 
ENDBRANCH  12  16
BRANCH  12  17
ATOM     17  C   LIG    1       -0.353 -11.163 -21.798  0.00  0.00    +0.261 C 
ATOM     18  C   LIG    1       -0.572 -12.340 -22.752  0.00  0.00    +0.019 C 
ENDBRANCH  12  17
ENDBRANCH  10  13
BRANCH  10  19
ATOM     19  C   LIG    1       -3.843 -10.659 -21.622  0.00  0.00    +0.250 C 
ATOM     20  N   LIG    1       -4.704 -11.338 -21.919  0.00  0.00    -0.399 NA
ENDBRANCH  10  19
ENDBRANCH   1  11
BRANCH   4  21
ATOM     21  O   LIG    1       -5.681 -11.894 -15.954  0.00  0.00    -0.458 OA
ATOM     22  H   LIG    1       -6.216 -11.276 -15.436  0.00  0.00    +0.408 HD
ENDBRANCH   4  21
BRANCH   5  23
ATOM     23  O   LIG    1       -5.981  -9.207 -16.467  0.00  0.00    -0.469 OA
ATOM     24  H   LIG    1       -5.719  -9.040 -15.552  0.00  0.00    +0.400 HD
ENDBRANCH   5  23
TORSDOF 8
ENDMDL
MODEL 5
REMARK VINA RESULT:      -6.3     10.089     11.395
REMARK  Name = CHEMBL953
REMARK                            x       y       z     vdW  Elec       q    Type
REMARK                         _______ _______ _______ _____ _____    ______ ____
ROOT
ATOM      1  C   LIG    1       -3.784 -11.768 -19.345  0.00  0.00    -0.089 A 
ATOM      2  C   LIG    1       -4.382 -10.603 -18.844  0.00  0.00    +0.159 A 
ATOM      3  C   LIG    1       -4.848 -10.570 -17.549  0.00  0.00    -0.068 A 
ATOM      4  C   LIG    1       -4.727 -11.691 -16.736  0.00  0.00    +0.174 A 
ATOM      5  C   LIG    1       -4.134 -12.854 -17.225  0.00  0.00    +0.090 A 
ATOM      6  C   LIG    1       -3.668 -12.899 -18.524  0.00  0.00    +0.094 A 
ENDROOT
BRANCH   3   7
ATOM      7  N   LIG    1       -5.478  -9.340 -17.023  0.00  0.00    +0.034 N 
ATOM      8  O   LIG    1       -4.971  -8.263 -17.233  0.00  0.00    -0.128 OA
ATOM      9  O   LIG    1       -6.500  -9.411 -16.381  0.00  0.00    -0.154 OA
ENDBRANCH   3   7
BRANCH   1  11
ATOM     10  C   LIG    1       -2.455 -10.807 -21.182  0.00  0.00    -0.114 C 
ATOM     11  C   LIG    1       -3.287 -11.805 -20.722  0.00  0.00    +0.242 C 
BRANCH  10  13
ATOM     12  N   LIG    1       -0.898 -11.238 -23.012  0.00  0.00    -0.604 N 
ATOM     13  C   LIG    1       -2.088 -10.754 -22.606  0.00  0.00    +0.572 C 
ATOM     14  O   LIG    1       -2.858 -10.273 -23.415  0.00  0.00    -0.518 OA
BRANCH  12  16
ATOM     15  C   LIG    1        0.709 -10.115 -24.475  0.00  0.00    +0.019 C 
ATOM     16  C   LIG    1       -0.480 -11.076 -24.407  0.00  0.00    +0.280 C 
ENDBRANCH  12  16
BRANCH  12  17
ATOM     17  C   LIG    1       -0.023 -11.927 -22.061  0.00  0.00    +0.261 C 
ATOM     18  C   LIG    1       -0.113 -13.437 -22.288  0.00  0.00    +0.019 C 
ENDBRANCH  12  17
ENDBRANCH  10  13
BRANCH  10  19
ATOM     19  C   LIG    1       -1.948  -9.823 -20.274  0.00  0.00    +0.250 C 
ATOM     20  N   LIG    1       -1.544  -9.043 -19.554  0.00  0.00    -0.399 NA
ENDBRANCH  10  19
ENDBRANCH   1  11
BRANCH   4  21
ATOM     21  O   LIG    1       -5.188 -11.652 -15.460  0.00  0.00    -0.458 OA
ATOM     22  H   LIG    1       -4.543 -11.940 -14.799  0.00  0.00    +0.408 HD
ENDBRANCH   4  21
BRANCH   5  23
ATOM     23  O   LIG    1       -4.017 -13.947 -16.425  0.00  0.00    -0.469 OA
ATOM     24  H   LIG    1       -3.270 -13.909 -15.813  0.00  0.00    +0.400 HD
ENDBRANCH   5  23
TORSDOF 8
ENDMDL
MODEL 6
REMARK VINA RESULT:      -6.1      3.073      7.467
REMARK  Name = CHEMBL953
REMARK                            x       y       z     vdW  Elec       q    Type
REMARK                         _______ _______ _______ _____ _____    ______ ____
ROOT
ATOM      1  C   LIG    1       -4.861  -1.423 -20.331  0.00  0.00    -0.089 A 
ATOM      2  C   LIG    1       -4.505  -1.128 -21.654  0.00  0.00    +0.159 A 
ATOM      3  C   LIG    1       -3.707  -0.040 -21.926  0.00  0.00    -0.068 A 
ATOM      4  C   LIG    1       -3.254   0.769 -20.890  0.00  0.00    +0.174 A 
ATOM      5  C   LIG    1       -3.604   0.483 -19.571  0.00  0.00    +0.090 A 
ATOM      6  C   LIG    1       -4.407  -0.602 -19.288  0.00  0.00    +0.094 A 
ENDROOT
BRANCH   3   7
ATOM      7  N   LIG    1       -3.331   0.270 -23.322  0.00  0.00    +0.034 N 
ATOM      8  O   LIG    1       -2.217   0.665 -23.576  0.00  0.00    -0.128 OA
ATOM      9  O   LIG    1       -4.138   0.127 -24.212  0.00  0.00    -0.154 OA
ENDBRANCH   3   7
BRANCH   1  11
ATOM     10  C   LIG    1       -6.780  -2.451 -19.180  0.00  0.00    -0.114 C 
ATOM     11  C   LIG    1       -5.710  -2.580 -20.039  0.00  0.00    +0.242 C 
BRANCH  10  13
ATOM     12  N   LIG    1       -8.291  -4.311 -19.651  0.00  0.00    -0.604 N 
ATOM     13  C   LIG    1       -7.533  -3.643 -18.758  0.00  0.00    +0.572 C 
ATOM     14  O   LIG    1       -7.472  -4.024 -17.606  0.00  0.00    -0.518 OA
BRANCH  12  16
ATOM     15  C   LIG    1       -8.258  -6.515 -18.591  0.00  0.00    +0.019 C 
ATOM     16  C   LIG    1       -9.135  -5.423 -19.207  0.00  0.00    +0.280 C 
ENDBRANCH  12  16
BRANCH  12  17
ATOM     17  C   LIG    1       -8.269  -3.927 -21.065  0.00  0.00    +0.261 C 
ATOM     18  C   LIG    1       -9.272  -4.781 -21.841  0.00  0.00    +0.019 C 
ENDBRANCH  12  17
ENDBRANCH  10  13
BRANCH  10  19
ATOM     19  C   LIG    1       -7.160  -1.156 -18.699  0.00  0.00    +0.250 C 
ATOM     20  N   LIG    1       -7.460  -0.130 -18.317  0.00  0.00    -0.399 NA
ENDBRANCH  10  19
ENDBRANCH   1  11
BRANCH   4  21
ATOM     21  O   LIG    1       -2.467   1.841 -21.165  0.00  0.00    -0.458 OA
ATOM     22  H   LIG    1       -2.914   2.693 -21.065  0.00  0.00    +0.408 HD
ENDBRANCH   4  21
BRANCH   5  23
ATOM     23  O   LIG    1       -3.157   1.277 -18.561  0.00  0.00    -0.469 OA
ATOM     24  H   LIG    1       -3.054   0.819 -17.716  0.00  0.00    +0.400 HD
ENDBRANCH   5  23
TORSDOF 8
ENDMDL
MODEL 7
REMARK VINA RESULT:      -5.8     13.105     15.050
REMARK  Name = CHEMBL953
REMARK                            x       y       z     vdW  Elec       q    Type
REMARK                         _______ _______ _______ _____ _____    ______ ____
ROOT
ATOM      1  C   LIG    1       -3.443 -13.875 -18.343  0.00  0.00    -0.089 A 
ATOM      2  C   LIG    1       -3.191 -12.826 -19.238  0.00  0.00    +0.159 A 
ATOM      3  C   LIG    1       -3.596 -11.547 -18.930  0.00  0.00    -0.068 A 
ATOM      4  C   LIG    1       -4.254 -11.293 -17.733  0.00  0.00    +0.174 A 
ATOM      5  C   LIG    1       -4.509 -12.330 -16.837  0.00  0.00    +0.090 A 
ATOM      6  C   LIG    1       -4.113 -13.617 -17.139  0.00  0.00    +0.094 A 
ENDROOT
BRANCH   3   7
ATOM      7  N   LIG    1       -3.328 -10.441 -19.876  0.00  0.00    +0.034 N 
ATOM      8  O   LIG    1       -3.776 -10.483 -20.998  0.00  0.00    -0.128 OA
ATOM      9  O   LIG    1       -2.662  -9.495 -19.527  0.00  0.00    -0.154 OA
ENDBRANCH   3   7
BRANCH   1  11
ATOM     10  C   LIG    1       -3.275 -15.763 -19.915  0.00  0.00    -0.114 C 
ATOM     11  C   LIG    1       -3.013 -15.237 -18.668  0.00  0.00    +0.242 C 
BRANCH  10  13
ATOM     12  N   LIG    1       -1.728 -17.580 -20.436  0.00  0.00    -0.604 N 
ATOM     13  C   LIG    1       -2.992 -17.181 -20.189  0.00  0.00    +0.572 C 
ATOM     14  O   LIG    1       -3.898 -17.992 -20.194  0.00  0.00    -0.518 OA
BRANCH  12  16
ATOM     15  C   LIG    1       -0.478 -19.596 -19.841  0.00  0.00    +0.019 C 
ATOM     16  C   LIG    1       -1.462 -18.965 -20.828  0.00  0.00    +0.280 C 
ENDBRANCH  12  16
BRANCH  12  17
ATOM     17  C   LIG    1       -0.621 -16.628 -20.310  0.00  0.00    +0.261 C 
ATOM     18  C   LIG    1       -0.139 -16.220 -21.703  0.00  0.00    +0.019 C 
ENDBRANCH  12  17
ENDBRANCH  10  13
BRANCH  10  19
ATOM     19  C   LIG    1       -3.821 -14.929 -20.943  0.00  0.00    +0.250 C 
ATOM     20  N   LIG    1       -4.253 -14.267 -21.759  0.00  0.00    -0.399 NA
ENDBRANCH  10  19
ENDBRANCH   1  11
BRANCH   4  21
ATOM     21  O   LIG    1       -4.651 -10.029 -17.436  0.00  0.00    -0.458 OA
ATOM     22  H   LIG    1       -4.641  -9.425 -18.192  0.00  0.00    +0.408 HD
ENDBRANCH   4  21
BRANCH   5  23
ATOM     23  O   LIG    1       -5.154 -12.076 -15.667  0.00  0.00    -0.469 OA
ATOM     24  H   LIG    1       -6.114 -12.002 -15.754  0.00  0.00    +0.400 HD
ENDBRANCH   5  23
TORSDOF 8
ENDMDL
MODEL 8
REMARK VINA RESULT:      -5.8      4.211      7.554
REMARK  Name = CHEMBL953
REMARK                            x       y       z     vdW  Elec       q    Type
REMARK                         _______ _______ _______ _____ _____    ______ ____
ROOT
ATOM      1  C   LIG    1       -7.319  -2.015 -19.646  0.00  0.00    -0.089 A 
ATOM      2  C   LIG    1       -6.002  -1.876 -20.105  0.00  0.00    +0.159 A 
ATOM      3  C   LIG    1       -5.130  -1.035 -19.450  0.00  0.00    -0.068 A 
ATOM      4  C   LIG    1       -5.554  -0.322 -18.335  0.00  0.00    +0.174 A 
ATOM      5  C   LIG    1       -6.863  -0.454 -17.872  0.00  0.00    +0.090 A 
ATOM      6  C   LIG    1       -7.746  -1.290 -18.524  0.00  0.00    +0.094 A 
ENDROOT
BRANCH   3   7
ATOM      7  N   LIG    1       -3.740  -0.890 -19.935  0.00  0.00    +0.034 N 
ATOM      8  O   LIG    1       -3.516  -0.282 -20.955  0.00  0.00    -0.128 OA
ATOM      9  O   LIG    1       -2.828  -1.380 -19.311  0.00  0.00    -0.154 OA
ENDBRANCH   3   7
BRANCH   1  11
ATOM     10  C   LIG    1       -8.177  -4.270 -20.136  0.00  0.00    -0.114 C 
ATOM     11  C   LIG    1       -8.248  -2.908 -20.341  0.00  0.00    +0.242 C 
BRANCH  10  13
ATOM     12  N   LIG    1       -9.121  -4.966 -22.278  0.00  0.00    -0.604 N 
ATOM     13  C   LIG    1       -8.996  -5.180 -20.953  0.00  0.00    +0.572 C 
ATOM     14  O   LIG    1       -9.561  -6.123 -20.433  0.00  0.00    -0.518 OA
BRANCH  12  16
ATOM     15  C   LIG    1       -9.283  -7.030 -23.582  0.00  0.00    +0.019 C 
ATOM     16  C   LIG    1      -10.031  -5.797 -23.070  0.00  0.00    +0.280 C 
ENDBRANCH  12  16
BRANCH  12  17
ATOM     17  C   LIG    1       -8.345  -3.907 -22.927  0.00  0.00    +0.261 C 
ATOM     18  C   LIG    1       -8.655  -3.892 -24.425  0.00  0.00    +0.019 C 
ENDBRANCH  12  17
ENDBRANCH  10  13
BRANCH  10  19
ATOM     19  C   LIG    1       -7.307  -4.798 -19.129  0.00  0.00    +0.250 C 
ATOM     20  N   LIG    1       -6.616  -5.217 -18.331  0.00  0.00    -0.399 NA
ENDBRANCH  10  19
ENDBRANCH   1  11
BRANCH   4  21
ATOM     21  O   LIG    1       -4.690   0.505 -17.693  0.00  0.00    -0.458 OA
ATOM     22  H   LIG    1       -3.792   0.152 -17.615  0.00  0.00    +0.408 HD
ENDBRANCH   4  21
BRANCH   5  23
ATOM     23  O   LIG    1       -7.272   0.245 -16.779  0.00  0.00    -0.469 OA
ATOM     24  H   LIG    1       -6.714   1.006 -16.567  0.00  0.00    +0.400 HD
ENDBRANCH   5  23
TORSDOF 8
ENDMDL
MODEL 9
REMARK VINA RESULT:      -5.8      9.975     11.587
REMARK  Name = CHEMBL953
REMARK                            x       y       z     vdW  Elec       q    Type
REMARK                         _______ _______ _______ _____ _____    ______ ____
ROOT
ATOM      1  C   LIG    1       -3.852 -10.958 -19.838  0.00  0.00    -0.089 A 
ATOM      2  C   LIG    1       -3.626 -12.266 -19.386  0.00  0.00    +0.159 A 
ATOM      3  C   LIG    1       -3.916 -12.603 -18.083  0.00  0.00    -0.068 A 
ATOM      4  C   LIG    1       -4.432 -11.649 -17.214  0.00  0.00    +0.174 A 
ATOM      5  C   LIG    1       -4.659 -10.346 -17.655  0.00  0.00    +0.090 A 
ATOM      6  C   LIG    1       -4.367  -9.996 -18.957  0.00  0.00    +0.094 A 
ENDROOT
BRANCH   3   7
ATOM      7  N   LIG    1       -3.678 -13.984 -17.608  0.00  0.00    +0.034 N 
ATOM      8  O   LIG    1       -3.411 -14.858 -18.399  0.00  0.00    -0.128 OA
ATOM      9  O   LIG    1       -3.752 -14.239 -16.428  0.00  0.00    -0.154 OA
ENDBRANCH   3   7
BRANCH   1  11
ATOM     10  C   LIG    1       -2.408  -9.871 -21.510  0.00  0.00    -0.114 C 
ATOM     11  C   LIG    1       -3.544 -10.597 -21.223  0.00  0.00    +0.242 C 
BRANCH  10  13
ATOM     12  N   LIG    1       -1.348 -10.025 -23.704  0.00  0.00    -0.604 N 
ATOM     13  C   LIG    1       -2.182  -9.367 -22.874  0.00  0.00    +0.572 C 
ATOM     14  O   LIG    1       -2.746  -8.359 -23.251  0.00  0.00    -0.518 OA
BRANCH  12  16
ATOM     15  C   LIG    1       -1.831 -10.188 -26.097  0.00  0.00    +0.019 C 
ATOM     16  C   LIG    1       -1.027  -9.460 -25.017  0.00  0.00    +0.280 C 
ENDBRANCH  12  16
BRANCH  12  17
ATOM     17  C   LIG    1       -0.764 -11.304 -23.295  0.00  0.00    +0.261 C 
ATOM     18  C   LIG    1        0.747 -11.142 -23.121  0.00  0.00    +0.019 C 
ENDBRANCH  12  17
ENDBRANCH  10  13
BRANCH  10  19
ATOM     19  C   LIG    1       -1.448  -9.608 -20.481  0.00  0.00    +0.250 C 
ATOM     20  N   LIG    1       -0.687  -9.400 -19.663  0.00  0.00    -0.399 NA
ENDBRANCH  10  19
ENDBRANCH   1  11
BRANCH   4  21
ATOM     21  O   LIG    1       -4.716 -11.989 -15.930  0.00  0.00    -0.458 OA
ATOM     22  H   LIG    1       -4.980 -12.913 -15.817  0.00  0.00    +0.408 HD
ENDBRANCH   4  21
BRANCH   5  23
ATOM     23  O   LIG    1       -5.165  -9.417 -16.800  0.00  0.00    -0.469 OA
ATOM     24  H   LIG    1       -6.118  -9.493 -16.655  0.00  0.00    +0.400 HD
ENDBRANCH   5  23
TORSDOF 8
ENDMDL
