MODEL 1
REMARK VINA RESULT:      -7.9      0.000      0.000
REMARK  Name = CHEMBL167054
REMARK                            x       y       z     vdW  Elec       q    Type
REMARK                         _______ _______ _______ _____ _____    ______ ____
ROOT
ATOM      1  C   LIG    1       -6.906  -2.263 -19.587  0.00  0.00    -0.215 A 
ATOM      2  C   LIG    1       -7.287  -1.334 -18.610  0.00  0.00    +0.158 A 
ATOM      3  C   LIG    1       -6.413  -0.340 -18.229  0.00  0.00    -0.199 A 
ATOM      4  C   LIG    1       -5.155  -0.255 -18.811  0.00  0.00    +0.303 A 
ATOM      5  O   LIG    1       -4.298   0.727 -18.432  0.00  0.00    -0.611 OA
ATOM      6  C   LIG    1       -4.768  -1.176 -19.785  0.00  0.00    -0.024 A 
ATOM      7  C   LIG    1       -5.634  -2.180 -20.169  0.00  0.00    +0.086 A 
ENDROOT
BRANCH   1  10
ATOM      8  C   LIG    1       -6.920  -4.734 -18.170  0.00  0.00    +0.090 C 
ATOM      9  C   LIG    1       -7.907  -4.473 -19.279  0.00  0.00    -0.268 C 
ATOM     10  C   LIG    1       -7.835  -3.324 -19.995  0.00  0.00    +0.177 C 
BRANCH   9  11
ATOM     11  C   LIG    1       -8.903  -5.423 -19.573  0.00  0.00    +0.393 C 
ATOM     12  C   LIG    1       -9.644  -5.356 -20.884  0.00  0.00    +0.050 C 
ATOM     13  O   LIG    1       -9.165  -6.297 -18.772  0.00  0.00    -0.490 OA
ENDBRANCH   9  11
ENDBRANCH   1  10
BRANCH   3  14
ATOM     14  N   LIG    1       -6.817   0.641 -17.197  0.00  0.00    +0.070 N 
ATOM     15  O   LIG    1       -7.417   1.642 -17.517  0.00  0.00    -0.157 OA
ATOM     16  O   LIG    1       -6.547   0.443 -16.036  0.00  0.00    -0.252 OA
ENDBRANCH   3  14
BRANCH   6  17
ATOM     17  O   LIG    1       -3.535  -1.088 -20.352  0.00  0.00    -0.480 OA
ATOM     18  H   LIG    1       -3.418  -0.314 -20.920  0.00  0.00    +0.369 HD
ENDBRANCH   6  17
TORSDOF 4
ENDMDL
MODEL 2
REMARK VINA RESULT:      -7.8      1.481      3.075
REMARK  Name = CHEMBL167054
REMARK                            x       y       z     vdW  Elec       q    Type
REMARK                         _______ _______ _______ _____ _____    ______ ____
ROOT
ATOM      1  C   LIG    1       -6.915  -1.909 -18.747  0.00  0.00    -0.215 A 
ATOM      2  C   LIG    1       -5.625  -1.893 -19.293  0.00  0.00    +0.158 A 
ATOM      3  C   LIG    1       -4.904  -0.719 -19.319  0.00  0.00    -0.199 A 
ATOM      4  C   LIG    1       -5.453   0.448 -18.804  0.00  0.00    +0.303 A 
ATOM      5  O   LIG    1       -4.738   1.602 -18.832  0.00  0.00    -0.611 OA
ATOM      6  C   LIG    1       -6.737   0.440 -18.258  0.00  0.00    -0.024 A 
ATOM      7  C   LIG    1       -7.469  -0.730 -18.233  0.00  0.00    +0.086 A 
ENDROOT
BRANCH   1  10
ATOM      8  C   LIG    1       -7.548  -3.222 -21.194  0.00  0.00    +0.090 C 
ATOM      9  C   LIG    1       -7.924  -3.834 -19.869  0.00  0.00    -0.268 C 
ATOM     10  C   LIG    1       -7.685  -3.159 -18.718  0.00  0.00    +0.177 C 
BRANCH   9  11
ATOM     11  C   LIG    1       -8.524  -5.107 -19.826  0.00  0.00    +0.393 C 
ATOM     12  C   LIG    1       -9.769  -5.380 -20.630  0.00  0.00    +0.050 C 
ATOM     13  O   LIG    1       -8.039  -5.985 -19.142  0.00  0.00    -0.490 OA
ENDBRANCH   9  11
ENDBRANCH   1  10
BRANCH   3  14
ATOM     14  N   LIG    1       -3.542  -0.703 -19.896  0.00  0.00    +0.070 N 
ATOM     15  O   LIG    1       -2.640  -1.279 -19.332  0.00  0.00    -0.157 OA
ATOM     16  O   LIG    1       -3.330  -0.115 -20.931  0.00  0.00    -0.252 OA
ENDBRANCH   3  14
BRANCH   6  17
ATOM     17  O   LIG    1       -7.268   1.586 -17.755  0.00  0.00    -0.480 OA
ATOM     18  H   LIG    1       -7.934   1.442 -17.069  0.00  0.00    +0.369 HD
ENDBRANCH   6  17
TORSDOF 4
ENDMDL
MODEL 3
REMARK VINA RESULT:      -7.6      2.257      6.033
REMARK  Name = CHEMBL167054
REMARK                            x       y       z     vdW  Elec       q    Type
REMARK                         _______ _______ _______ _____ _____    ______ ____
ROOT
ATOM      1  C   LIG    1       -6.573  -3.249 -20.042  0.00  0.00    -0.215 A 
ATOM      2  C   LIG    1       -6.642  -4.210 -19.026  0.00  0.00    +0.158 A 
ATOM      3  C   LIG    1       -7.677  -5.119 -19.008  0.00  0.00    -0.199 A 
ATOM      4  C   LIG    1       -8.653  -5.085 -19.996  0.00  0.00    +0.303 A 
ATOM      5  O   LIG    1       -9.671  -5.983 -19.974  0.00  0.00    -0.611 OA
ATOM      6  C   LIG    1       -8.591  -4.131 -21.012  0.00  0.00    -0.024 A 
ATOM      7  C   LIG    1       -7.561  -3.212 -21.035  0.00  0.00    +0.086 A 
ENDROOT
BRANCH   1  10
ATOM      8  C   LIG    1       -6.822  -0.813 -18.590  0.00  0.00    +0.090 C 
ATOM      9  C   LIG    1       -5.545  -1.153 -19.313  0.00  0.00    -0.268 C 
ATOM     10  C   LIG    1       -5.471  -2.280 -20.064  0.00  0.00    +0.177 C 
BRANCH   9  11
ATOM     11  C   LIG    1       -4.428  -0.303 -19.210  0.00  0.00    +0.393 C 
ATOM     12  C   LIG    1       -3.133  -0.675 -19.885  0.00  0.00    +0.050 C 
ATOM     13  O   LIG    1       -4.508   0.731 -18.578  0.00  0.00    -0.490 OA
ENDBRANCH   9  11
ENDBRANCH   1  10
BRANCH   3  14
ATOM     14  N   LIG    1       -7.749  -6.134 -17.934  0.00  0.00    +0.070 N 
ATOM     15  O   LIG    1       -7.050  -7.120 -17.986  0.00  0.00    -0.157 OA
ATOM     16  O   LIG    1       -8.506  -5.979 -17.004  0.00  0.00    -0.252 OA
ENDBRANCH   3  14
BRANCH   6  17
ATOM     17  O   LIG    1       -9.549  -4.103 -21.977  0.00  0.00    -0.480 OA
ATOM     18  H   LIG    1      -10.451  -4.179 -21.638  0.00  0.00    +0.369 HD
ENDBRANCH   6  17
TORSDOF 4
ENDMDL
MODEL 4
REMARK VINA RESULT:      -7.1      2.875      6.184
REMARK  Name = CHEMBL167054
REMARK                            x       y       z     vdW  Elec       q    Type
REMARK                         _______ _______ _______ _____ _____    ______ ____
ROOT
ATOM      1  C   LIG    1       -4.278  -0.373 -19.660  0.00  0.00    -0.215 A 
ATOM      2  C   LIG    1       -4.905  -1.611 -19.845  0.00  0.00    +0.158 A 
ATOM      3  C   LIG    1       -6.176  -1.818 -19.355  0.00  0.00    -0.199 A 
ATOM      4  C   LIG    1       -6.837  -0.801 -18.679  0.00  0.00    +0.303 A 
ATOM      5  O   LIG    1       -8.090  -1.010 -18.198  0.00  0.00    -0.611 OA
ATOM      6  C   LIG    1       -6.219   0.435 -18.491  0.00  0.00    -0.024 A 
ATOM      7  C   LIG    1       -4.943   0.650 -18.973  0.00  0.00    +0.086 A 
ENDROOT
BRANCH   1  10
ATOM      8  C   LIG    1       -3.893  -0.027 -22.460  0.00  0.00    +0.090 C 
ATOM      9  C   LIG    1       -2.737   0.096 -21.501  0.00  0.00    -0.268 C 
ATOM     10  C   LIG    1       -2.923  -0.149 -20.181  0.00  0.00    +0.177 C 
BRANCH   9  11
ATOM     11  C   LIG    1       -1.464   0.464 -21.976  0.00  0.00    +0.393 C 
ATOM     12  C   LIG    1       -0.463  -0.599 -22.349  0.00  0.00    +0.050 C 
ATOM     13  O   LIG    1       -1.172   1.638 -22.085  0.00  0.00    -0.490 OA
ENDBRANCH   9  11
ENDBRANCH   1  10
BRANCH   3  14
ATOM     14  N   LIG    1       -6.838  -3.127 -19.551  0.00  0.00    +0.070 N 
ATOM     15  O   LIG    1       -6.686  -4.009 -18.737  0.00  0.00    -0.157 OA
ATOM     16  O   LIG    1       -7.530  -3.315 -20.524  0.00  0.00    -0.252 OA
ENDBRANCH   3  14
BRANCH   6  17
ATOM     17  O   LIG    1       -6.872   1.428 -17.828  0.00  0.00    -0.480 OA
ATOM     18  H   LIG    1       -7.630   1.788 -18.308  0.00  0.00    +0.369 HD
ENDBRANCH   6  17
TORSDOF 4
ENDMDL
MODEL 5
REMARK VINA RESULT:      -5.6      8.363     10.404
REMARK  Name = CHEMBL167054
REMARK                            x       y       z     vdW  Elec       q    Type
REMARK                         _______ _______ _______ _____ _____    ______ ____
ROOT
ATOM      1  C   LIG    1       -3.586 -11.477 -19.287  0.00  0.00    -0.215 A 
ATOM      2  C   LIG    1       -4.236 -10.316 -18.851  0.00  0.00    +0.158 A 
ATOM      3  C   LIG    1       -4.854 -10.296 -17.620  0.00  0.00    -0.199 A 
ATOM      4  C   LIG    1       -4.834 -11.423 -16.810  0.00  0.00    +0.303 A 
ATOM      5  O   LIG    1       -5.445 -11.397 -15.597  0.00  0.00    -0.611 OA
ATOM      6  C   LIG    1       -4.188 -12.584 -17.237  0.00  0.00    -0.024 A 
ATOM      7  C   LIG    1       -3.571 -12.616 -18.471  0.00  0.00    +0.086 A 
ENDROOT
BRANCH   1  10
ATOM      8  C   LIG    1       -1.445  -9.676 -19.812  0.00  0.00    +0.090 C 
ATOM      9  C   LIG    1       -1.855 -10.705 -20.833  0.00  0.00    -0.268 C 
ATOM     10  C   LIG    1       -2.927 -11.502 -20.598  0.00  0.00    +0.177 C 
BRANCH   9  11
ATOM     11  C   LIG    1       -1.127 -10.840 -22.030  0.00  0.00    +0.393 C 
ATOM     12  C   LIG    1       -0.266 -12.057 -22.255  0.00  0.00    +0.050 C 
ATOM     13  O   LIG    1       -1.193  -9.978 -22.882  0.00  0.00    -0.490 OA
ENDBRANCH   9  11
ENDBRANCH   1  10
BRANCH   3  14
ATOM     14  N   LIG    1       -5.541  -9.068 -17.160  0.00  0.00    +0.070 N 
ATOM     15  O   LIG    1       -6.640  -9.141 -16.660  0.00  0.00    -0.157 OA
ATOM     16  O   LIG    1       -5.003  -7.992 -17.283  0.00  0.00    -0.252 OA
ENDBRANCH   3  14
BRANCH   6  17
ATOM     17  O   LIG    1       -4.171 -13.685 -16.439  0.00  0.00    -0.480 OA
ATOM     18  H   LIG    1       -4.245 -14.521 -16.920  0.00  0.00    +0.369 HD
ENDBRANCH   6  17
TORSDOF 4
ENDMDL
MODEL 6
REMARK VINA RESULT:      -5.5     10.109     12.287
REMARK  Name = CHEMBL167054
REMARK                            x       y       z     vdW  Elec       q    Type
REMARK                         _______ _______ _______ _____ _____    ______ ____
ROOT
ATOM      1  C   LIG    1       -3.453 -13.971 -18.360  0.00  0.00    -0.215 A 
ATOM      2  C   LIG    1       -3.171 -12.947 -19.273  0.00  0.00    +0.158 A 
ATOM      3  C   LIG    1       -3.534 -11.649 -18.985  0.00  0.00    -0.199 A 
ATOM      4  C   LIG    1       -4.179 -11.354 -17.790  0.00  0.00    +0.303 A 
ATOM      5  O   LIG    1       -4.534 -10.074 -17.512  0.00  0.00    -0.611 OA
ATOM      6  C   LIG    1       -4.462 -12.369 -16.876  0.00  0.00    -0.024 A 
ATOM      7  C   LIG    1       -4.108 -13.672 -17.158  0.00  0.00    +0.086 A 
ENDROOT
BRANCH   1  10
ATOM      8  C   LIG    1       -3.779 -14.965 -21.008  0.00  0.00    +0.090 C 
ATOM      9  C   LIG    1       -3.142 -15.814 -19.937  0.00  0.00    -0.268 C 
ATOM     10  C   LIG    1       -3.067 -15.354 -18.664  0.00  0.00    +0.177 C 
BRANCH   9  11
ATOM     11  C   LIG    1       -2.627 -17.084 -20.258  0.00  0.00    +0.393 C 
ATOM     12  C   LIG    1       -3.566 -18.215 -20.592  0.00  0.00    +0.050 C 
ATOM     13  O   LIG    1       -1.427 -17.269 -20.267  0.00  0.00    -0.490 OA
ENDBRANCH   9  11
ENDBRANCH   1  10
BRANCH   3  14
ATOM     14  N   LIG    1       -3.236 -10.568 -19.950  0.00  0.00    +0.070 N 
ATOM     15  O   LIG    1       -2.244  -9.890 -19.810  0.00  0.00    -0.157 OA
ATOM     16  O   LIG    1       -3.982 -10.363 -20.878  0.00  0.00    -0.252 OA
ENDBRANCH   3  14
BRANCH   6  17
ATOM     17  O   LIG    1       -5.093 -12.073 -15.708  0.00  0.00    -0.480 OA
ATOM     18  H   LIG    1       -6.051 -12.206 -15.734  0.00  0.00    +0.369 HD
ENDBRANCH   6  17
TORSDOF 4
ENDMDL
MODEL 7
REMARK VINA RESULT:      -5.5      8.879     10.991
REMARK  Name = CHEMBL167054
REMARK                            x       y       z     vdW  Elec       q    Type
REMARK                         _______ _______ _______ _____ _____    ______ ____
ROOT
ATOM      1  C   LIG    1       -3.709 -10.640 -19.548  0.00  0.00    -0.215 A 
ATOM      2  C   LIG    1       -3.512 -11.977 -19.179  0.00  0.00    +0.158 A 
ATOM      3  C   LIG    1       -3.927 -12.417 -17.941  0.00  0.00    -0.199 A 
ATOM      4  C   LIG    1       -4.542 -11.538 -17.059  0.00  0.00    +0.303 A 
ATOM      5  O   LIG    1       -4.950 -11.977 -15.840  0.00  0.00    -0.611 OA
ATOM      6  C   LIG    1       -4.743 -10.206 -17.420  0.00  0.00    -0.024 A 
ATOM      7  C   LIG    1       -4.325  -9.754 -18.655  0.00  0.00    +0.086 A 
ENDROOT
BRANCH   1  10
ATOM      8  C   LIG    1       -1.171  -9.376 -19.805  0.00  0.00    +0.090 C 
ATOM      9  C   LIG    1       -2.029  -9.638 -21.016  0.00  0.00    -0.268 C 
ATOM     10  C   LIG    1       -3.268 -10.169 -20.866  0.00  0.00    +0.177 C 
BRANCH   9  11
ATOM     11  C   LIG    1       -1.546  -9.331 -22.302  0.00  0.00    +0.393 C 
ATOM     12  C   LIG    1       -2.281  -8.337 -23.165  0.00  0.00    +0.050 C 
ATOM     13  O   LIG    1       -0.538  -9.865 -22.717  0.00  0.00    -0.490 OA
ENDBRANCH   9  11
ENDBRANCH   1  10
BRANCH   3  14
ATOM     14  N   LIG    1       -3.718 -13.829 -17.552  0.00  0.00    +0.070 N 
ATOM     15  O   LIG    1       -3.579 -14.676 -18.404  0.00  0.00    -0.157 OA
ATOM     16  O   LIG    1       -3.686 -14.136 -16.383  0.00  0.00    -0.252 OA
ENDBRANCH   3  14
BRANCH   6  17
ATOM     17  O   LIG    1       -5.346  -9.350 -16.551  0.00  0.00    -0.480 OA
ATOM     18  H   LIG    1       -4.904  -9.283 -15.694  0.00  0.00    +0.369 HD
ENDBRANCH   6  17
TORSDOF 4
ENDMDL
MODEL 8
REMARK VINA RESULT:      -5.4      8.977     10.790
REMARK  Name = CHEMBL167054
REMARK                            x       y       z     vdW  Elec       q    Type
REMARK                         _______ _______ _______ _____ _____    ______ ____
ROOT
ATOM      1  C   LIG    1       -1.640  -9.213 -20.681  0.00  0.00    -0.215 A 
ATOM      2  C   LIG    1       -2.271  -9.455 -19.454  0.00  0.00    +0.158 A 
ATOM      3  C   LIG    1       -3.010 -10.604 -19.277  0.00  0.00    -0.199 A 
ATOM      4  C   LIG    1       -3.132 -11.522 -20.311  0.00  0.00    +0.303 A 
ATOM      5  O   LIG    1       -3.862 -12.653 -20.130  0.00  0.00    -0.611 OA
ATOM      6  C   LIG    1       -2.507 -11.288 -21.536  0.00  0.00    -0.024 A 
ATOM      7  C   LIG    1       -1.769 -10.137 -21.726  0.00  0.00    +0.086 A 
ENDROOT
BRANCH   1  10
ATOM      8  C   LIG    1        1.203  -9.354 -20.611  0.00  0.00    +0.090 C 
ATOM      9  C   LIG    1        0.502  -8.057 -20.921  0.00  0.00    -0.268 C 
ATOM     10  C   LIG    1       -0.851  -7.990 -20.873  0.00  0.00    +0.177 C 
BRANCH   9  11
ATOM     11  C   LIG    1        1.251  -6.914 -21.261  0.00  0.00    +0.393 C 
ATOM     12  C   LIG    1        0.949  -6.167 -22.534  0.00  0.00    +0.050 C 
ATOM     13  O   LIG    1        2.140  -6.530 -20.527  0.00  0.00    -0.490 OA
ENDBRANCH   9  11
ENDBRANCH   1  10
BRANCH   3  14
ATOM     14  N   LIG    1       -3.675 -10.860 -17.980  0.00  0.00    +0.070 N 
ATOM     15  O   LIG    1       -4.522 -10.097 -17.574  0.00  0.00    -0.157 OA
ATOM     16  O   LIG    1       -3.373 -11.830 -17.325  0.00  0.00    -0.252 OA
ENDBRANCH   3  14
BRANCH   6  17
ATOM     17  O   LIG    1       -2.630 -12.191 -22.545  0.00  0.00    -0.480 OA
ATOM     18  H   LIG    1       -2.774 -11.792 -23.414  0.00  0.00    +0.369 HD
ENDBRANCH   6  17
TORSDOF 4
ENDMDL
MODEL 9
REMARK VINA RESULT:      -5.3      9.756     12.041
REMARK  Name = CHEMBL167054
REMARK                            x       y       z     vdW  Elec       q    Type
REMARK                         _______ _______ _______ _____ _____    ______ ____
ROOT
ATOM      1  C   LIG    1       -3.658 -11.546 -19.678  0.00  0.00    -0.215 A 
ATOM      2  C   LIG    1       -3.268 -12.879 -19.857  0.00  0.00    +0.158 A 
ATOM      3  C   LIG    1       -3.339 -13.764 -18.803  0.00  0.00    -0.199 A 
ATOM      4  C   LIG    1       -3.798 -13.336 -17.564  0.00  0.00    +0.303 A 
ATOM      5  O   LIG    1       -3.866 -14.213 -16.528  0.00  0.00    -0.611 OA
ATOM      6  C   LIG    1       -4.188 -12.010 -17.378  0.00  0.00    -0.024 A 
ATOM      7  C   LIG    1       -4.115 -11.115 -18.426  0.00  0.00    +0.086 A 
ENDROOT
BRANCH   1  10
ATOM      8  C   LIG    1       -1.353  -9.899 -19.971  0.00  0.00    +0.090 C 
ATOM      9  C   LIG    1       -2.458  -9.870 -20.995  0.00  0.00    -0.268 C 
ATOM     10  C   LIG    1       -3.583 -10.602 -20.800  0.00  0.00    +0.177 C 
BRANCH   9  11
ATOM     11  C   LIG    1       -2.324  -9.083 -22.155  0.00  0.00    +0.393 C 
ATOM     12  C   LIG    1       -1.203  -8.081 -22.259  0.00  0.00    +0.050 C 
ATOM     13  O   LIG    1       -3.110  -9.211 -23.071  0.00  0.00    -0.490 OA
ENDBRANCH   9  11
ENDBRANCH   1  10
BRANCH   3  14
ATOM     14  N   LIG    1       -2.927 -15.172 -18.993  0.00  0.00    +0.070 N 
ATOM     15  O   LIG    1       -1.977 -15.611 -18.386  0.00  0.00    -0.157 OA
ATOM     16  O   LIG    1       -3.540 -15.884 -19.754  0.00  0.00    -0.252 OA
ENDBRANCH   3  14
BRANCH   6  17
ATOM     17  O   LIG    1       -4.637 -11.598 -16.162  0.00  0.00    -0.480 OA
ATOM     18  H   LIG    1       -3.943 -11.518 -15.493  0.00  0.00    +0.369 HD
ENDBRANCH   6  17
TORSDOF 4
ENDMDL
