MODEL 1
REMARK VINA RESULT:      -6.1      0.000      0.000
REMARK  Name = CHEMBL1089503
REMARK                            x       y       z     vdW  Elec       q    Type
REMARK                         _______ _______ _______ _____ _____    ______ ____
ROOT
ATOM      1  C   LIG    1       -3.586 -13.585 -18.320  0.00  0.00    +0.102 A 
ATOM      2  C   LIG    1       -3.496 -12.585 -19.325  0.00  0.00    -0.044 A 
ATOM      3  C   LIG    1       -3.996 -11.305 -18.989  0.00  0.00    -0.130 A 
ATOM      4  S   LIG    1       -3.715 -10.350 -20.460  0.00  0.00    +0.150 S 
ATOM      5  C   LIG    1       -2.965 -11.626 -21.457  0.00  0.00    -0.096 A 
ATOM      6  C   LIG    1       -4.546 -11.029 -17.756  0.00  0.00    +0.004 A 
ATOM      7  C   LIG    1       -4.617 -12.029 -16.801  0.00  0.00    +0.149 A 
ATOM      8  C   LIG    1       -2.968 -12.705 -20.623  0.00  0.00    -0.077 A 
ATOM      9 CL   LIG    1       -2.321 -14.223 -21.161  0.00  0.00    -0.024 Cl
ATOM     10  C   LIG    1       -4.129 -13.305 -17.106  0.00  0.00    +0.089 A 
ENDROOT
BRANCH   5  11
ATOM     11  C   LIG    1       -2.470 -11.536 -22.830  0.00  0.00    +0.549 C 
ATOM     12  O   LIG    1       -1.383 -11.020 -23.055  0.00  0.00    -0.628 OA
ATOM     13  O   LIG    1       -3.143 -11.975 -23.754  0.00  0.00    -0.659 OA
ENDBRANCH   5  11
BRANCH   6  14
ATOM     14  N   LIG    1       -5.056  -9.673 -17.454  0.00  0.00    +0.030 N 
ATOM     15  O   LIG    1       -6.083  -9.539 -16.831  0.00  0.00    -0.123 OA
ATOM     16  O   LIG    1       -4.445  -8.699 -17.829  0.00  0.00    -0.137 OA
ENDBRANCH   6  14
BRANCH   7  17
ATOM     17  O   LIG    1       -5.155 -11.774 -15.580  0.00  0.00    -0.477 OA
ATOM     18  H   LIG    1       -5.806 -11.059 -15.578  0.00  0.00    +0.405 HD
ENDBRANCH   7  17
BRANCH  10  19
ATOM     19  O   LIG    1       -4.201 -14.286 -16.167  0.00  0.00    -0.480 OA
ATOM     20  H   LIG    1       -3.456 -14.903 -16.184  0.00  0.00    +0.397 HD
ENDBRANCH  10  19
TORSDOF 4
ENDMDL
MODEL 2
REMARK VINA RESULT:      -5.6     11.997     12.988
REMARK  Name = CHEMBL1089503
REMARK                            x       y       z     vdW  Elec       q    Type
REMARK                         _______ _______ _______ _____ _____    ______ ____
ROOT
ATOM      1  C   LIG    1        7.685  -4.084 -19.411  0.00  0.00    +0.102 A 
ATOM      2  C   LIG    1        7.029  -5.255 -18.945  0.00  0.00    -0.044 A 
ATOM      3  C   LIG    1        6.687  -5.283 -17.572  0.00  0.00    -0.130 A 
ATOM      4  S   LIG    1        5.901  -6.863 -17.373  0.00  0.00    +0.150 S 
ATOM      5  C   LIG    1        6.038  -7.435 -19.058  0.00  0.00    -0.096 A 
ATOM      6  C   LIG    1        6.971  -4.238 -16.720  0.00  0.00    +0.004 A 
ATOM      7  C   LIG    1        7.612  -3.114 -17.210  0.00  0.00    +0.149 A 
ATOM      8  C   LIG    1        6.670  -6.399 -19.680  0.00  0.00    -0.077 A 
ATOM      9 CL   LIG    1        7.033  -6.492 -21.375  0.00  0.00    -0.024 Cl
ATOM     10  C   LIG    1        7.962  -3.058 -18.564  0.00  0.00    +0.089 A 
ENDROOT
BRANCH   5  11
ATOM     11  C   LIG    1        5.584  -8.702 -19.629  0.00  0.00    +0.549 C 
ATOM     12  O   LIG    1        4.403  -8.857 -19.911  0.00  0.00    -0.628 OA
ATOM     13  O   LIG    1        6.385  -9.607 -19.826  0.00  0.00    -0.659 OA
ENDBRANCH   5  11
BRANCH   6  14
ATOM     14  N   LIG    1        6.592  -4.317 -15.292  0.00  0.00    +0.030 N 
ATOM     15  O   LIG    1        6.987  -5.236 -14.612  0.00  0.00    -0.123 OA
ATOM     16  O   LIG    1        5.889  -3.463 -14.804  0.00  0.00    -0.137 OA
ENDBRANCH   6  14
BRANCH   7  17
ATOM     17  O   LIG    1        7.900  -2.074 -16.384  0.00  0.00    -0.477 OA
ATOM     18  H   LIG    1        8.590  -2.266 -15.735  0.00  0.00    +0.405 HD
ENDBRANCH   7  17
BRANCH  10  19
ATOM     19  O   LIG    1        8.593  -1.952 -19.043  0.00  0.00    -0.480 OA
ATOM     20  H   LIG    1        8.159  -1.119 -18.810  0.00  0.00    +0.397 HD
ENDBRANCH  10  19
TORSDOF 4
ENDMDL
MODEL 3
REMARK VINA RESULT:      -5.6      2.637      3.054
REMARK  Name = CHEMBL1089503
REMARK                            x       y       z     vdW  Elec       q    Type
REMARK                         _______ _______ _______ _____ _____    ______ ____
ROOT
ATOM      1  C   LIG    1       -3.957 -13.759 -17.669  0.00  0.00    +0.102 A 
ATOM      2  C   LIG    1       -3.399 -13.845 -18.972  0.00  0.00    -0.044 A 
ATOM      3  C   LIG    1       -3.229 -12.625 -19.668  0.00  0.00    -0.130 A 
ATOM      4  S   LIG    1       -2.524 -13.127 -21.219  0.00  0.00    +0.150 S 
ATOM      5  C   LIG    1       -2.469 -14.886 -20.922  0.00  0.00    -0.096 A 
ATOM      6  C   LIG    1       -3.584 -11.410 -19.124  0.00  0.00    +0.004 A 
ATOM      7  C   LIG    1       -4.126 -11.365 -17.851  0.00  0.00    +0.149 A 
ATOM      8  C   LIG    1       -2.988 -14.998 -19.664  0.00  0.00    -0.077 A 
ATOM      9 CL   LIG    1       -3.141 -16.559 -18.922  0.00  0.00    -0.024 Cl
ATOM     10  C   LIG    1       -4.304 -12.556 -17.138  0.00  0.00    +0.089 A 
ENDROOT
BRANCH   5  11
ATOM     11  C   LIG    1       -1.988 -15.945 -21.807  0.00  0.00    +0.549 C 
ATOM     12  O   LIG    1       -0.891 -16.454 -21.611  0.00  0.00    -0.628 OA
ATOM     13  O   LIG    1       -2.680 -16.322 -22.744  0.00  0.00    -0.659 OA
ENDBRANCH   5  11
BRANCH   6  14
ATOM     14  N   LIG    1       -3.387 -10.162 -19.894  0.00  0.00    +0.030 N 
ATOM     15  O   LIG    1       -3.951 -10.010 -20.953  0.00  0.00    -0.123 OA
ATOM     16  O   LIG    1       -2.662  -9.294 -19.465  0.00  0.00    -0.137 OA
ENDBRANCH   6  14
BRANCH   7  17
ATOM     17  O   LIG    1       -4.481 -10.176 -17.298  0.00  0.00    -0.477 OA
ATOM     18  H   LIG    1       -3.757  -9.538 -17.238  0.00  0.00    +0.405 HD
ENDBRANCH   7  17
BRANCH  10  19
ATOM     19  O   LIG    1       -4.837 -12.510 -15.888  0.00  0.00    -0.480 OA
ATOM     20  H   LIG    1       -4.267 -12.085 -15.232  0.00  0.00    +0.397 HD
ENDBRANCH  10  19
TORSDOF 4
ENDMDL
MODEL 4
REMARK VINA RESULT:      -5.1      1.967      3.310
REMARK  Name = CHEMBL1089503
REMARK                            x       y       z     vdW  Elec       q    Type
REMARK                         _______ _______ _______ _____ _____    ______ ____
ROOT
ATOM      1  C   LIG    1       -4.068 -10.187 -18.949  0.00  0.00    +0.102 A 
ATOM      2  C   LIG    1       -3.445 -11.198 -19.728  0.00  0.00    -0.044 A 
ATOM      3  C   LIG    1       -3.366 -12.485 -19.145  0.00  0.00    -0.130 A 
ATOM      4  S   LIG    1       -2.545 -13.454 -20.387  0.00  0.00    +0.150 S 
ATOM      5  C   LIG    1       -2.331 -12.175 -21.613  0.00  0.00    -0.096 A 
ATOM      6  C   LIG    1       -3.862 -12.757 -17.888  0.00  0.00    +0.004 A 
ATOM      7  C   LIG    1       -4.462 -11.746 -17.159  0.00  0.00    +0.149 A 
ATOM      8  C   LIG    1       -2.893 -11.084 -21.016  0.00  0.00    -0.077 A 
ATOM      9 CL   LIG    1       -2.925  -9.559 -21.844  0.00  0.00    -0.024 Cl
ATOM     10  C   LIG    1       -4.555 -10.463 -17.710  0.00  0.00    +0.089 A 
ENDROOT
BRANCH   5  11
ATOM     11  C   LIG    1       -1.708 -12.272 -22.931  0.00  0.00    +0.549 C 
ATOM     12  O   LIG    1       -2.344 -12.719 -23.878  0.00  0.00    -0.628 OA
ATOM     13  O   LIG    1       -0.549 -11.908 -23.090  0.00  0.00    -0.659 OA
ENDBRANCH   5  11
BRANCH   6  14
ATOM     14  N   LIG    1       -3.754 -14.121 -17.323  0.00  0.00    +0.030 N 
ATOM     15  O   LIG    1       -3.705 -15.078 -18.060  0.00  0.00    -0.123 OA
ATOM     16  O   LIG    1       -3.714 -14.278 -16.125  0.00  0.00    -0.137 OA
ENDBRANCH   6  14
BRANCH   7  17
ATOM     17  O   LIG    1       -4.957 -11.996 -15.918  0.00  0.00    -0.477 OA
ATOM     18  H   LIG    1       -5.922 -11.965 -15.866  0.00  0.00    +0.405 HD
ENDBRANCH   7  17
BRANCH  10  19
ATOM     19  O   LIG    1       -5.145  -9.471 -16.991  0.00  0.00    -0.480 OA
ATOM     20  H   LIG    1       -5.090  -8.598 -17.404  0.00  0.00    +0.397 HD
ENDBRANCH  10  19
TORSDOF 4
ENDMDL
MODEL 5
REMARK VINA RESULT:      -4.9     12.142     12.932
REMARK  Name = CHEMBL1089503
REMARK                            x       y       z     vdW  Elec       q    Type
REMARK                         _______ _______ _______ _____ _____    ______ ____
ROOT
ATOM      1  C   LIG    1        6.593  -6.090 -16.700  0.00  0.00    +0.102 A 
ATOM      2  C   LIG    1        6.826  -6.100 -18.101  0.00  0.00    -0.044 A 
ATOM      3  C   LIG    1        7.270  -4.886 -18.676  0.00  0.00    -0.130 A 
ATOM      4  S   LIG    1        7.449  -5.282 -20.398  0.00  0.00    +0.150 S 
ATOM      5  C   LIG    1        6.948  -6.994 -20.323  0.00  0.00    -0.096 A 
ATOM      6  C   LIG    1        7.468  -3.746 -17.928  0.00  0.00    +0.004 A 
ATOM      7  C   LIG    1        7.230  -3.774 -16.565  0.00  0.00    +0.149 A 
ATOM      8  C   LIG    1        6.673  -7.172 -18.998  0.00  0.00    -0.077 A 
ATOM      9 CL   LIG    1        6.135  -8.718 -18.422  0.00  0.00    -0.024 Cl
ATOM     10  C   LIG    1        6.791  -4.962 -15.969  0.00  0.00    +0.089 A 
ENDROOT
BRANCH   5  11
ATOM     11  C   LIG    1        6.856  -7.964 -21.412  0.00  0.00    +0.549 C 
ATOM     12  O   LIG    1        7.871  -8.491 -21.849  0.00  0.00    -0.628 OA
ATOM     13  O   LIG    1        5.764  -8.250 -21.887  0.00  0.00    -0.659 OA
ENDBRANCH   5  11
BRANCH   6  14
ATOM     14  N   LIG    1        7.933  -2.500 -18.578  0.00  0.00    +0.030 N 
ATOM     15  O   LIG    1        7.213  -1.920 -19.358  0.00  0.00    -0.123 OA
ATOM     16  O   LIG    1        9.032  -2.061 -18.329  0.00  0.00    -0.137 OA
ENDBRANCH   6  14
BRANCH   7  17
ATOM     17  O   LIG    1        7.420  -2.658 -15.812  0.00  0.00    -0.477 OA
ATOM     18  H   LIG    1        6.814  -1.935 -16.021  0.00  0.00    +0.405 HD
ENDBRANCH   7  17
BRANCH  10  19
ATOM     19  O   LIG    1        6.556  -4.987 -14.630  0.00  0.00    -0.480 OA
ATOM     20  H   LIG    1        7.340  -5.178 -14.096  0.00  0.00    +0.397 HD
ENDBRANCH  10  19
TORSDOF 4
ENDMDL
MODEL 6
REMARK VINA RESULT:      -4.9      5.236      7.646
REMARK  Name = CHEMBL1089503
REMARK                            x       y       z     vdW  Elec       q    Type
REMARK                         _______ _______ _______ _____ _____    ______ ____
ROOT
ATOM      1  C   LIG    1        0.076  -7.489 -21.220  0.00  0.00    +0.102 A 
ATOM      2  C   LIG    1       -0.967  -8.005 -22.035  0.00  0.00    -0.044 A 
ATOM      3  C   LIG    1       -1.192  -7.343 -23.265  0.00  0.00    -0.130 A 
ATOM      4  S   LIG    1       -2.537  -8.253 -23.985  0.00  0.00    +0.150 S 
ATOM      5  C   LIG    1       -2.765  -9.452 -22.683  0.00  0.00    -0.096 A 
ATOM      6  C   LIG    1       -0.448  -6.255 -23.664  0.00  0.00    +0.004 A 
ATOM      7  C   LIG    1        0.560  -5.780 -22.843  0.00  0.00    +0.149 A 
ATOM      8  C   LIG    1       -1.810  -9.099 -21.774  0.00  0.00    -0.077 A 
ATOM      9 CL   LIG    1       -1.639  -9.998 -20.299  0.00  0.00    -0.024 Cl
ATOM     10  C   LIG    1        0.806  -6.415 -21.620  0.00  0.00    +0.089 A 
ENDROOT
BRANCH   5  11
ATOM     11  C   LIG    1       -3.735 -10.543 -22.609  0.00  0.00    +0.549 C 
ATOM     12  O   LIG    1       -4.930 -10.293 -22.512  0.00  0.00    -0.628 OA
ATOM     13  O   LIG    1       -3.354 -11.706 -22.645  0.00  0.00    -0.659 OA
ENDBRANCH   5  11
BRANCH   6  14
ATOM     14  N   LIG    1       -0.724  -5.597 -24.961  0.00  0.00    +0.030 N 
ATOM     15  O   LIG    1       -1.775  -5.026 -25.137  0.00  0.00    -0.123 OA
ATOM     16  O   LIG    1        0.101  -5.631 -25.844  0.00  0.00    -0.137 OA
ENDBRANCH   6  14
BRANCH   7  17
ATOM     17  O   LIG    1        1.304  -4.707 -23.220  0.00  0.00    -0.477 OA
ATOM     18  H   LIG    1        1.318  -3.990 -22.572  0.00  0.00    +0.405 HD
ENDBRANCH   7  17
BRANCH  10  19
ATOM     19  O   LIG    1        1.797  -5.947 -20.815  0.00  0.00    -0.480 OA
ATOM     20  H   LIG    1        2.050  -6.555 -20.107  0.00  0.00    +0.397 HD
ENDBRANCH  10  19
TORSDOF 4
ENDMDL
MODEL 7
REMARK VINA RESULT:      -4.8      2.848      3.902
REMARK  Name = CHEMBL1089503
REMARK                            x       y       z     vdW  Elec       q    Type
REMARK                         _______ _______ _______ _____ _____    ______ ____
ROOT
ATOM      1  C   LIG    1       -3.076 -10.363 -18.514  0.00  0.00    +0.102 A 
ATOM      2  C   LIG    1       -2.479 -10.678 -19.763  0.00  0.00    -0.044 A 
ATOM      3  C   LIG    1       -2.695 -11.987 -20.255  0.00  0.00    -0.130 A 
ATOM      4  S   LIG    1       -1.817 -12.002 -21.798  0.00  0.00    +0.150 S 
ATOM      5  C   LIG    1       -1.201 -10.328 -21.762  0.00  0.00    -0.096 A 
ATOM      6  C   LIG    1       -3.443 -12.918 -19.566  0.00  0.00    +0.004 A 
ATOM      7  C   LIG    1       -4.009 -12.576 -18.351  0.00  0.00    +0.149 A 
ATOM      8  C   LIG    1       -1.695  -9.848 -20.584  0.00  0.00    -0.077 A 
ATOM      9 CL   LIG    1       -1.354  -8.217 -20.097  0.00  0.00    -0.024 Cl
ATOM     10  C   LIG    1       -3.812 -11.287 -17.841  0.00  0.00    +0.089 A 
ENDROOT
BRANCH   5  11
ATOM     11  C   LIG    1       -0.374  -9.640 -22.751  0.00  0.00    +0.549 C 
ATOM     12  O   LIG    1       -0.879  -9.215 -23.783  0.00  0.00    -0.628 OA
ATOM     13  O   LIG    1        0.825  -9.490 -22.549  0.00  0.00    -0.659 OA
ENDBRANCH   5  11
BRANCH   6  14
ATOM     14  N   LIG    1       -3.639 -14.276 -20.123  0.00  0.00    +0.030 N 
ATOM     15  O   LIG    1       -4.184 -14.417 -21.193  0.00  0.00    -0.123 OA
ATOM     16  O   LIG    1       -3.254 -15.243 -19.509  0.00  0.00    -0.137 OA
ENDBRANCH   6  14
BRANCH   7  17
ATOM     17  O   LIG    1       -4.749 -13.481 -17.659  0.00  0.00    -0.477 OA
ATOM     18  H   LIG    1       -5.270 -13.097 -16.941  0.00  0.00    +0.405 HD
ENDBRANCH   7  17
BRANCH  10  19
ATOM     19  O   LIG    1       -4.369 -10.952 -16.646  0.00  0.00    -0.480 OA
ATOM     20  H   LIG    1       -4.779 -11.694 -16.181  0.00  0.00    +0.397 HD
ENDBRANCH  10  19
TORSDOF 4
ENDMDL
MODEL 8
REMARK VINA RESULT:      -4.7      4.722      7.381
REMARK  Name = CHEMBL1089503
REMARK                            x       y       z     vdW  Elec       q    Type
REMARK                         _______ _______ _______ _____ _____    ______ ____
ROOT
ATOM      1  C   LIG    1       -1.890  -7.502 -23.574  0.00  0.00    +0.102 A 
ATOM      2  C   LIG    1       -1.638  -8.443 -22.539  0.00  0.00    -0.044 A 
ATOM      3  C   LIG    1       -0.442  -8.267 -21.803  0.00  0.00    -0.130 A 
ATOM      4  S   LIG    1       -0.478  -9.599 -20.630  0.00  0.00    +0.150 S 
ATOM      5  C   LIG    1       -2.027 -10.337 -21.121  0.00  0.00    -0.096 A 
ATOM      6  C   LIG    1        0.442  -7.243 -22.067  0.00  0.00    +0.004 A 
ATOM      7  C   LIG    1        0.163  -6.346 -23.083  0.00  0.00    +0.149 A 
ATOM      8  C   LIG    1       -2.433  -9.534 -22.148  0.00  0.00    -0.077 A 
ATOM      9 CL   LIG    1       -3.927  -9.861 -22.969  0.00  0.00    -0.024 Cl
ATOM     10  C   LIG    1       -1.013  -6.495 -23.827  0.00  0.00    +0.089 A 
ENDROOT
BRANCH   5  11
ATOM     11  C   LIG    1       -2.695 -11.510 -20.563  0.00  0.00    +0.549 C 
ATOM     12  O   LIG    1       -2.773 -12.540 -21.221  0.00  0.00    -0.628 OA
ATOM     13  O   LIG    1       -3.176 -11.464 -19.438  0.00  0.00    -0.659 OA
ENDBRANCH   5  11
BRANCH   6  14
ATOM     14  N   LIG    1        1.680  -7.103 -21.268  0.00  0.00    +0.030 N 
ATOM     15  O   LIG    1        2.527  -7.966 -21.311  0.00  0.00    -0.123 OA
ATOM     16  O   LIG    1        1.845  -6.128 -20.573  0.00  0.00    -0.137 OA
ENDBRANCH   6  14
BRANCH   7  17
ATOM     17  O   LIG    1        1.024  -5.330 -23.356  0.00  0.00    -0.477 OA
ATOM     18  H   LIG    1        1.954  -5.554 -23.217  0.00  0.00    +0.405 HD
ENDBRANCH   7  17
BRANCH  10  19
ATOM     19  O   LIG    1       -1.284  -5.612 -24.826  0.00  0.00    -0.480 OA
ATOM     20  H   LIG    1       -2.014  -5.008 -24.630  0.00  0.00    +0.397 HD
ENDBRANCH  10  19
TORSDOF 4
ENDMDL
MODEL 9
REMARK VINA RESULT:      -4.6      6.509      7.912
REMARK  Name = CHEMBL1089503
REMARK                            x       y       z     vdW  Elec       q    Type
REMARK                         _______ _______ _______ _____ _____    ______ ____
ROOT
ATOM      1  C   LIG    1       -1.177  -8.043 -22.003  0.00  0.00    +0.102 A 
ATOM      2  C   LIG    1       -1.579  -7.495 -23.251  0.00  0.00    -0.044 A 
ATOM      3  C   LIG    1       -0.820  -6.403 -23.735  0.00  0.00    -0.130 A 
ATOM      4  S   LIG    1       -1.604  -6.005 -25.278  0.00  0.00    +0.150 S 
ATOM      5  C   LIG    1       -2.879  -7.252 -25.251  0.00  0.00    -0.096 A 
ATOM      6  C   LIG    1        0.254  -5.887 -23.042  0.00  0.00    +0.004 A 
ATOM      7  C   LIG    1        0.615  -6.446 -21.829  0.00  0.00    +0.149 A 
ATOM      8  C   LIG    1       -2.642  -7.904 -24.075  0.00  0.00    -0.077 A 
ATOM      9 CL   LIG    1       -3.651  -9.233 -23.598  0.00  0.00    -0.024 Cl
ATOM     10  C   LIG    1       -0.117  -7.528 -21.326  0.00  0.00    +0.089 A 
ENDROOT
BRANCH   5  11
ATOM     11  C   LIG    1       -3.920  -7.512 -26.243  0.00  0.00    +0.549 C 
ATOM     12  O   LIG    1       -3.752  -8.378 -27.094  0.00  0.00    -0.628 OA
ATOM     13  O   LIG    1       -4.960  -6.865 -26.225  0.00  0.00    -0.659 OA
ENDBRANCH   5  11
BRANCH   6  14
ATOM     14  N   LIG    1        1.015  -4.743 -23.591  0.00  0.00    +0.030 N 
ATOM     15  O   LIG    1        0.500  -3.651 -23.658  0.00  0.00    -0.123 OA
ATOM     16  O   LIG    1        2.151  -4.899 -23.973  0.00  0.00    -0.137 OA
ENDBRANCH   6  14
BRANCH   7  17
ATOM     17  O   LIG    1        1.671  -5.950 -21.132  0.00  0.00    -0.477 OA
ATOM     18  H   LIG    1        1.621  -6.104 -20.179  0.00  0.00    +0.405 HD
ENDBRANCH   7  17
BRANCH  10  19
ATOM     19  O   LIG    1        0.240  -8.076 -20.133  0.00  0.00    -0.480 OA
ATOM     20  H   LIG    1        0.381  -7.428 -19.429  0.00  0.00    +0.397 HD
ENDBRANCH  10  19
TORSDOF 4
ENDMDL
