MODEL 1
REMARK VINA RESULT:      -7.6      0.000      0.000
REMARK  Name = CHEMBL350927
REMARK                            x       y       z     vdW  Elec       q    Type
REMARK                         _______ _______ _______ _____ _____    ______ ____
ROOT
ATOM      1  C   LIG    1       -2.801  -9.908 -20.327  0.00  0.00    +0.565 C 
ATOM      2  N   LIG    1       -1.664  -9.196 -20.202  0.00  0.00    -0.717 N 
ATOM      3  H   LIG    1       -1.307  -9.003 -19.320  0.00  0.00    +0.398 HD
ATOM      4  O   LIG    1       -3.249 -10.150 -21.430  0.00  0.00    -0.513 OA
ENDROOT
BRANCH   2   5
ATOM      5  C   LIG    1       -0.967  -8.713 -21.397  0.00  0.00    +0.184 C 
ATOM      6  C   LIG    1       -0.060  -9.819 -21.939  0.00  0.00    +0.024 C 
ATOM      7  C   LIG    1        0.668  -9.314 -23.187  0.00  0.00    -0.008 C 
ATOM      8  C   LIG    1        1.515  -8.092 -22.825  0.00  0.00    +0.017 C 
ATOM      9  C   LIG    1        0.607  -6.986 -22.282  0.00  0.00    -0.004 C 
ATOM     10  C   LIG    1       -0.419  -6.599 -23.349  0.00  0.00    +0.017 C 
ATOM     11  C   LIG    1       -1.265  -7.822 -23.711  0.00  0.00    -0.008 C 
ATOM     12  C   LIG    1       -0.357  -8.927 -24.254  0.00  0.00    +0.020 C 
ATOM     13  C   LIG    1       -1.992  -8.325 -22.464  0.00  0.00    +0.024 C 
ATOM     14  C   LIG    1       -0.121  -7.491 -21.034  0.00  0.00    +0.024 C 
ENDBRANCH   2   5
BRANCH   1  16
ATOM     15  C   LIG    1       -3.418 -11.741 -18.758  0.00  0.00    +0.183 A 
ATOM     16  C   LIG    1       -3.503 -10.394 -19.123  0.00  0.00    -0.127 A 
ATOM     17  C   LIG    1       -4.254  -9.509 -18.345  0.00  0.00    +0.105 A 
ATOM     18  C   LIG    1       -4.908  -9.969 -17.217  0.00  0.00    +0.080 A 
ATOM     19  C   LIG    1       -4.819 -11.313 -16.860  0.00  0.00    +0.178 A 
ATOM     20  C   LIG    1       -4.073 -12.192 -17.633  0.00  0.00    -0.073 A 
BRANCH  20  21
ATOM     21  N   LIG    1       -3.982 -13.619 -17.249  0.00  0.00    +0.035 N 
ATOM     22  O   LIG    1       -3.945 -14.474 -18.103  0.00  0.00    -0.129 OA
ATOM     23  O   LIG    1       -3.945 -13.929 -16.081  0.00  0.00    -0.154 OA
ENDBRANCH  20  21
BRANCH  18  24
ATOM     24  O   LIG    1       -5.639  -9.110 -16.458  0.00  0.00    -0.470 OA
ATOM     25  H   LIG    1       -5.893  -9.466 -15.595  0.00  0.00    +0.399 HD
ENDBRANCH  18  24
BRANCH  19  26
ATOM     26  O   LIG    1       -5.462 -11.763 -15.752  0.00  0.00    -0.458 OA
ATOM     27  H   LIG    1       -4.892 -12.245 -15.135  0.00  0.00    +0.408 HD
ENDBRANCH  19  26
ENDBRANCH   1  16
TORSDOF 5
ENDMDL
MODEL 2
REMARK VINA RESULT:      -7.6      0.003      1.644
REMARK  Name = CHEMBL350927
REMARK                            x       y       z     vdW  Elec       q    Type
REMARK                         _______ _______ _______ _____ _____    ______ ____
ROOT
ATOM      1  C   LIG    1       -2.799  -9.912 -20.327  0.00  0.00    +0.565 C 
ATOM      2  N   LIG    1       -1.663  -9.198 -20.201  0.00  0.00    -0.717 N 
ATOM      3  H   LIG    1       -1.306  -9.004 -19.320  0.00  0.00    +0.398 HD
ATOM      4  O   LIG    1       -3.246 -10.155 -21.430  0.00  0.00    -0.513 OA
ENDROOT
BRANCH   2   5
ATOM      5  C   LIG    1       -0.966  -8.715 -21.396  0.00  0.00    +0.184 C 
ATOM      6  C   LIG    1       -0.118  -7.494 -21.033  0.00  0.00    +0.024 C 
ATOM      7  C   LIG    1        0.610  -6.990 -22.281  0.00  0.00    -0.008 C 
ATOM      8  C   LIG    1       -0.416  -6.599 -23.347  0.00  0.00    +0.017 C 
ATOM      9  C   LIG    1       -1.263  -7.820 -23.710  0.00  0.00    -0.004 C 
ATOM     10  C   LIG    1       -0.358  -8.926 -24.254  0.00  0.00    +0.017 C 
ATOM     11  C   LIG    1        0.668  -9.317 -23.188  0.00  0.00    -0.008 C 
ATOM     12  C   LIG    1        1.516  -8.096 -22.825  0.00  0.00    +0.020 C 
ATOM     13  C   LIG    1       -0.060  -9.821 -21.941  0.00  0.00    +0.024 C 
ATOM     14  C   LIG    1       -1.991  -8.325 -22.462  0.00  0.00    +0.024 C 
ENDBRANCH   2   5
BRANCH   1  16
ATOM     15  C   LIG    1       -3.416 -11.743 -18.758  0.00  0.00    +0.183 A 
ATOM     16  C   LIG    1       -3.501 -10.397 -19.122  0.00  0.00    -0.127 A 
ATOM     17  C   LIG    1       -4.252  -9.512 -18.345  0.00  0.00    +0.105 A 
ATOM     18  C   LIG    1       -4.906  -9.971 -17.217  0.00  0.00    +0.080 A 
ATOM     19  C   LIG    1       -4.817 -11.315 -16.859  0.00  0.00    +0.178 A 
ATOM     20  C   LIG    1       -4.071 -12.195 -17.632  0.00  0.00    -0.073 A 
BRANCH  20  21
ATOM     21  N   LIG    1       -3.980 -13.622 -17.247  0.00  0.00    +0.035 N 
ATOM     22  O   LIG    1       -3.942 -13.932 -16.079  0.00  0.00    -0.129 OA
ATOM     23  O   LIG    1       -3.941 -14.476 -18.102  0.00  0.00    -0.154 OA
ENDBRANCH  20  21
BRANCH  18  24
ATOM     24  O   LIG    1       -5.637  -9.112 -16.457  0.00  0.00    -0.470 OA
ATOM     25  H   LIG    1       -5.108  -8.572 -15.854  0.00  0.00    +0.399 HD
ENDBRANCH  18  24
BRANCH  19  26
ATOM     26  O   LIG    1       -5.460 -11.765 -15.751  0.00  0.00    -0.458 OA
ATOM     27  H   LIG    1       -6.420 -11.649 -15.779  0.00  0.00    +0.408 HD
ENDBRANCH  19  26
ENDBRANCH   1  16
TORSDOF 5
ENDMDL
MODEL 3
REMARK VINA RESULT:      -7.6      1.355      2.987
REMARK  Name = CHEMBL350927
REMARK                            x       y       z     vdW  Elec       q    Type
REMARK                         _______ _______ _______ _____ _____    ______ ____
ROOT
ATOM      1  C   LIG    1       -2.619 -10.502 -19.909  0.00  0.00    +0.565 C 
ATOM      2  N   LIG    1       -1.924  -9.349 -19.971  0.00  0.00    -0.717 N 
ATOM      3  H   LIG    1       -2.008  -8.693 -19.260  0.00  0.00    +0.398 HD
ATOM      4  O   LIG    1       -2.515 -11.324 -20.799  0.00  0.00    -0.513 OA
ENDROOT
BRANCH   2   5
ATOM      5  C   LIG    1       -1.042  -9.086 -21.111  0.00  0.00    +0.184 C 
ATOM      6  C   LIG    1       -1.881  -8.957 -22.384  0.00  0.00    +0.024 C 
ATOM      7  C   LIG    1       -0.960  -8.682 -23.575  0.00  0.00    -0.008 C 
ATOM      8  C   LIG    1        0.030  -9.837 -23.732  0.00  0.00    +0.017 C 
ATOM      9  C   LIG    1        0.869  -9.966 -22.459  0.00  0.00    -0.004 C 
ATOM     10  C   LIG    1        1.636  -8.664 -22.220  0.00  0.00    +0.017 C 
ATOM     11  C   LIG    1        0.645  -7.509 -22.063  0.00  0.00    -0.008 C 
ATOM     12  C   LIG    1       -0.193  -7.380 -23.337  0.00  0.00    +0.020 C 
ATOM     13  C   LIG    1       -0.274  -7.784 -20.873  0.00  0.00    +0.024 C 
ATOM     14  C   LIG    1       -0.052 -10.241 -21.268  0.00  0.00    +0.024 C 
ENDBRANCH   2   5
BRANCH   1  16
ATOM     15  C   LIG    1       -4.421  -9.793 -18.344  0.00  0.00    +0.183 A 
ATOM     16  C   LIG    1       -3.508 -10.766 -18.761  0.00  0.00    -0.127 A 
ATOM     17  C   LIG    1       -3.439 -11.988 -18.088  0.00  0.00    +0.105 A 
ATOM     18  C   LIG    1       -4.274 -12.231 -17.014  0.00  0.00    +0.080 A 
ATOM     19  C   LIG    1       -5.183 -11.257 -16.604  0.00  0.00    +0.178 A 
ATOM     20  C   LIG    1       -5.251 -10.042 -17.273  0.00  0.00    -0.073 A 
BRANCH  20  21
ATOM     21  N   LIG    1       -6.218  -9.010 -16.833  0.00  0.00    +0.035 N 
ATOM     22  O   LIG    1       -7.016  -9.263 -15.961  0.00  0.00    -0.129 OA
ATOM     23  O   LIG    1       -6.209  -7.916 -17.347  0.00  0.00    -0.154 OA
ENDBRANCH  20  21
BRANCH  18  24
ATOM     24  O   LIG    1       -4.210 -13.421 -16.357  0.00  0.00    -0.470 OA
ATOM     25  H   LIG    1       -3.713 -14.104 -16.828  0.00  0.00    +0.399 HD
ENDBRANCH  18  24
BRANCH  19  26
ATOM     26  O   LIG    1       -6.003 -11.497 -15.549  0.00  0.00    -0.458 OA
ATOM     27  H   LIG    1       -5.681 -12.184 -14.949  0.00  0.00    +0.408 HD
ENDBRANCH  19  26
ENDBRANCH   1  16
TORSDOF 5
ENDMDL
MODEL 4
REMARK VINA RESULT:      -7.1      1.104      2.053
REMARK  Name = CHEMBL350927
REMARK                            x       y       z     vdW  Elec       q    Type
REMARK                         _______ _______ _______ _____ _____    ______ ____
ROOT
ATOM      1  C   LIG    1       -2.680  -9.739 -20.180  0.00  0.00    +0.565 C 
ATOM      2  N   LIG    1       -3.162  -9.887 -21.430  0.00  0.00    -0.717 N 
ATOM      3  H   LIG    1       -3.999 -10.356 -21.574  0.00  0.00    +0.398 HD
ATOM      4  O   LIG    1       -1.631  -9.152 -19.998  0.00  0.00    -0.513 OA
ENDROOT
BRANCH   2   5
ATOM      5  C   LIG    1       -2.422  -9.341 -22.570  0.00  0.00    +0.184 C 
ATOM      6  C   LIG    1       -3.405  -8.939 -23.670  0.00  0.00    +0.024 C 
ATOM      7  C   LIG    1       -2.633  -8.368 -24.861  0.00  0.00    -0.008 C 
ATOM      8  C   LIG    1       -1.670  -9.428 -25.400  0.00  0.00    +0.017 C 
ATOM      9  C   LIG    1       -0.686  -9.830 -24.299  0.00  0.00    -0.004 C 
ATOM     10  C   LIG    1        0.107  -8.601 -23.850  0.00  0.00    +0.017 C 
ATOM     11  C   LIG    1       -0.856  -7.541 -23.312  0.00  0.00    -0.008 C 
ATOM     12  C   LIG    1       -1.839  -7.139 -24.413  0.00  0.00    +0.020 C 
ATOM     13  C   LIG    1       -1.628  -8.112 -22.122  0.00  0.00    +0.024 C 
ATOM     14  C   LIG    1       -1.459 -10.401 -23.109  0.00  0.00    +0.024 C 
ENDBRANCH   2   5
BRANCH   1  16
ATOM     15  C   LIG    1       -3.330 -11.651 -18.724  0.00  0.00    +0.183 A 
ATOM     16  C   LIG    1       -3.426 -10.291 -19.032  0.00  0.00    -0.127 A 
ATOM     17  C   LIG    1       -4.228  -9.456 -18.251  0.00  0.00    +0.105 A 
ATOM     18  C   LIG    1       -4.923  -9.978 -17.176  0.00  0.00    +0.080 A 
ATOM     19  C   LIG    1       -4.823 -11.335 -16.875  0.00  0.00    +0.178 A 
ATOM     20  C   LIG    1       -4.026 -12.165 -17.651  0.00  0.00    -0.073 A 
BRANCH  20  21
ATOM     21  N   LIG    1       -3.923 -13.606 -17.326  0.00  0.00    +0.035 N 
ATOM     22  O   LIG    1       -3.872 -14.423 -18.216  0.00  0.00    -0.129 OA
ATOM     23  O   LIG    1       -3.892 -13.964 -16.172  0.00  0.00    -0.154 OA
ENDBRANCH  20  21
BRANCH  18  24
ATOM     24  O   LIG    1       -5.706  -9.167 -16.413  0.00  0.00    -0.470 OA
ATOM     25  H   LIG    1       -5.212  -8.505 -15.910  0.00  0.00    +0.399 HD
ENDBRANCH  18  24
BRANCH  19  26
ATOM     26  O   LIG    1       -5.507 -11.846 -15.818  0.00  0.00    -0.458 OA
ATOM     27  H   LIG    1       -5.043 -11.764 -14.973  0.00  0.00    +0.408 HD
ENDBRANCH  19  26
ENDBRANCH   1  16
TORSDOF 5
ENDMDL
MODEL 5
REMARK VINA RESULT:      -6.8      4.968      7.699
REMARK  Name = CHEMBL350927
REMARK                            x       y       z     vdW  Elec       q    Type
REMARK                         _______ _______ _______ _____ _____    ______ ____
ROOT
ATOM      1  C   LIG    1       -3.044 -15.230 -19.152  0.00  0.00    +0.565 C 
ATOM      2  N   LIG    1       -3.345 -15.623 -20.406  0.00  0.00    -0.717 N 
ATOM      3  H   LIG    1       -3.831 -15.028 -20.998  0.00  0.00    +0.398 HD
ATOM      4  O   LIG    1       -2.436 -15.976 -18.411  0.00  0.00    -0.513 OA
ENDROOT
BRANCH   2   5
ATOM      5  C   LIG    1       -2.937 -16.950 -20.875  0.00  0.00    +0.184 C 
ATOM      6  C   LIG    1       -3.062 -17.012 -22.399  0.00  0.00    +0.024 C 
ATOM      7  C   LIG    1       -2.636 -18.398 -22.889  0.00  0.00    -0.008 C 
ATOM      8  C   LIG    1       -3.538 -19.461 -22.259  0.00  0.00    +0.017 C 
ATOM      9  C   LIG    1       -3.412 -19.399 -20.736  0.00  0.00    -0.004 C 
ATOM     10  C   LIG    1       -1.960 -19.657 -20.333  0.00  0.00    +0.017 C 
ATOM     11  C   LIG    1       -1.058 -18.594 -20.963  0.00  0.00    -0.008 C 
ATOM     12  C   LIG    1       -1.183 -18.657 -22.486  0.00  0.00    +0.020 C 
ATOM     13  C   LIG    1       -1.484 -17.209 -20.473  0.00  0.00    +0.024 C 
ATOM     14  C   LIG    1       -3.838 -18.013 -20.246  0.00  0.00    +0.024 C 
ENDBRANCH   2   5
BRANCH   1  16
ATOM     15  C   LIG    1       -3.283 -12.777 -19.503  0.00  0.00    +0.183 A 
ATOM     16  C   LIG    1       -3.457 -13.894 -18.680  0.00  0.00    -0.127 A 
ATOM     17  C   LIG    1       -4.022 -13.742 -17.412  0.00  0.00    +0.105 A 
ATOM     18  C   LIG    1       -4.407 -12.489 -16.975  0.00  0.00    +0.080 A 
ATOM     19  C   LIG    1       -4.231 -11.380 -17.800  0.00  0.00    +0.178 A 
ATOM     20  C   LIG    1       -3.670 -11.530 -19.061  0.00  0.00    -0.073 A 
BRANCH  20  21
ATOM     21  N   LIG    1       -3.484 -10.348 -19.933  0.00  0.00    +0.035 N 
ATOM     22  O   LIG    1       -3.984 -10.325 -21.034  0.00  0.00    -0.129 OA
ATOM     23  O   LIG    1       -2.832  -9.407 -19.545  0.00  0.00    -0.154 OA
ENDBRANCH  20  21
BRANCH  18  24
ATOM     24  O   LIG    1       -4.958 -12.338 -15.741  0.00  0.00    -0.470 OA
ATOM     25  H   LIG    1       -5.604 -11.621 -15.683  0.00  0.00    +0.399 HD
ENDBRANCH  18  24
BRANCH  19  26
ATOM     26  O   LIG    1       -4.611 -10.148 -17.370  0.00  0.00    -0.458 OA
ATOM     27  H   LIG    1       -5.484 -10.129 -16.955  0.00  0.00    +0.408 HD
ENDBRANCH  19  26
ENDBRANCH   1  16
TORSDOF 5
ENDMDL
MODEL 6
REMARK VINA RESULT:      -6.7      1.314      2.664
REMARK  Name = CHEMBL350927
REMARK                            x       y       z     vdW  Elec       q    Type
REMARK                         _______ _______ _______ _____ _____    ______ ____
ROOT
ATOM      1  C   LIG    1       -1.980  -9.983 -20.653  0.00  0.00    +0.565 C 
ATOM      2  N   LIG    1       -0.673  -9.782 -20.390  0.00  0.00    -0.717 N 
ATOM      3  H   LIG    1       -0.258 -10.221 -19.631  0.00  0.00    +0.398 HD
ATOM      4  O   LIG    1       -2.500  -9.433 -21.604  0.00  0.00    -0.513 OA
ENDROOT
BRANCH   2   5
ATOM      5  C   LIG    1        0.120  -8.900 -21.250  0.00  0.00    +0.184 C 
ATOM      6  C   LIG    1        0.181  -9.486 -22.662  0.00  0.00    +0.024 C 
ATOM      7  C   LIG    1        1.009  -8.566 -23.561  0.00  0.00    -0.008 C 
ATOM      8  C   LIG    1        2.427  -8.444 -22.998  0.00  0.00    +0.017 C 
ATOM      9  C   LIG    1        2.366  -7.858 -21.586  0.00  0.00    -0.004 C 
ATOM     10  C   LIG    1        1.715  -6.474 -21.636  0.00  0.00    +0.017 C 
ATOM     11  C   LIG    1        0.298  -6.596 -22.199  0.00  0.00    -0.008 C 
ATOM     12  C   LIG    1        0.359  -7.182 -23.611  0.00  0.00    +0.020 C 
ATOM     13  C   LIG    1       -0.530  -7.516 -21.301  0.00  0.00    +0.024 C 
ATOM     14  C   LIG    1        1.537  -8.778 -20.687  0.00  0.00    +0.024 C 
ENDBRANCH   2   5
BRANCH   1  16
ATOM     15  C   LIG    1       -3.524 -10.333 -18.732  0.00  0.00    +0.183 A 
ATOM     16  C   LIG    1       -2.778 -10.870 -19.785  0.00  0.00    -0.127 A 
ATOM     17  C   LIG    1       -2.791 -12.248 -20.014  0.00  0.00    +0.105 A 
ATOM     18  C   LIG    1       -3.542 -13.074 -19.200  0.00  0.00    +0.080 A 
ATOM     19  C   LIG    1       -4.283 -12.532 -18.151  0.00  0.00    +0.178 A 
ATOM     20  C   LIG    1       -4.271 -11.163 -17.924  0.00  0.00    -0.073 A 
BRANCH  20  21
ATOM     21  N   LIG    1       -5.059 -10.592 -16.808  0.00  0.00    +0.035 N 
ATOM     22  O   LIG    1       -5.444 -11.307 -15.912  0.00  0.00    -0.129 OA
ATOM     23  O   LIG    1       -5.320  -9.412 -16.795  0.00  0.00    -0.154 OA
ENDBRANCH  20  21
BRANCH  18  24
ATOM     24  O   LIG    1       -3.557 -14.417 -19.421  0.00  0.00    -0.470 OA
ATOM     25  H   LIG    1       -4.087 -14.684 -20.184  0.00  0.00    +0.399 HD
ENDBRANCH  18  24
BRANCH  19  26
ATOM     26  O   LIG    1       -5.021 -13.345 -17.352  0.00  0.00    -0.458 OA
ATOM     27  H   LIG    1       -4.776 -14.280 -17.409  0.00  0.00    +0.408 HD
ENDBRANCH  19  26
ENDBRANCH   1  16
TORSDOF 5
ENDMDL
MODEL 7
REMARK VINA RESULT:      -6.3      7.922     10.352
REMARK  Name = CHEMBL350927
REMARK                            x       y       z     vdW  Elec       q    Type
REMARK                         _______ _______ _______ _____ _____    ______ ____
ROOT
ATOM      1  C   LIG    1        5.759  -7.006 -19.517  0.00  0.00    +0.565 C 
ATOM      2  N   LIG    1        4.563  -6.823 -20.110  0.00  0.00    -0.717 N 
ATOM      3  H   LIG    1        4.136  -5.952 -20.082  0.00  0.00    +0.398 HD
ATOM      4  O   LIG    1        6.295  -8.096 -19.552  0.00  0.00    -0.513 OA
ENDROOT
BRANCH   2   5
ATOM      5  C   LIG    1        3.908  -7.938 -20.798  0.00  0.00    +0.184 C 
ATOM      6  C   LIG    1        4.722  -8.323 -22.035  0.00  0.00    +0.024 C 
ATOM      7  C   LIG    1        4.038  -9.488 -22.753  0.00  0.00    -0.008 C 
ATOM      8  C   LIG    1        2.630  -9.068 -23.180  0.00  0.00    +0.017 C 
ATOM      9  C   LIG    1        1.816  -8.683 -21.944  0.00  0.00    -0.004 C 
ATOM     10  C   LIG    1        1.726  -9.882 -20.998  0.00  0.00    +0.017 C 
ATOM     11  C   LIG    1        3.134 -10.302 -20.571  0.00  0.00    -0.008 C 
ATOM     12  C   LIG    1        3.948 -10.688 -21.808  0.00  0.00    +0.020 C 
ATOM     13  C   LIG    1        3.817  -9.138 -19.853  0.00  0.00    +0.024 C 
ATOM     14  C   LIG    1        2.500  -7.518 -21.225  0.00  0.00    +0.024 C 
ENDBRANCH   2   5
BRANCH   1  16
ATOM     15  C   LIG    1        6.235  -5.704 -17.450  0.00  0.00    +0.183 A 
ATOM     16  C   LIG    1        6.419  -5.882 -18.824  0.00  0.00    -0.127 A 
ATOM     17  C   LIG    1        7.227  -4.995 -19.538  0.00  0.00    +0.105 A 
ATOM     18  C   LIG    1        7.842  -3.945 -18.884  0.00  0.00    +0.080 A 
ATOM     19  C   LIG    1        7.656  -3.773 -17.513  0.00  0.00    +0.178 A 
ATOM     20  C   LIG    1        6.852  -4.655 -16.803  0.00  0.00    -0.073 A 
BRANCH  20  21
ATOM     21  N   LIG    1        6.657  -4.467 -15.347  0.00  0.00    +0.035 N 
ATOM     22  O   LIG    1        6.159  -3.446 -14.931  0.00  0.00    -0.129 OA
ATOM     23  O   LIG    1        6.995  -5.334 -14.576  0.00  0.00    -0.154 OA
ENDBRANCH  20  21
BRANCH  18  24
ATOM     24  O   LIG    1        8.630  -3.079 -19.577  0.00  0.00    -0.470 OA
ATOM     25  H   LIG    1        9.573  -3.155 -19.373  0.00  0.00    +0.399 HD
ENDBRANCH  18  24
BRANCH  19  26
ATOM     26  O   LIG    1        8.261  -2.741 -16.871  0.00  0.00    -0.458 OA
ATOM     27  H   LIG    1        7.770  -2.412 -16.105  0.00  0.00    +0.408 HD
ENDBRANCH  19  26
ENDBRANCH   1  16
TORSDOF 5
ENDMDL
MODEL 8
REMARK VINA RESULT:      -6.2      2.795      4.346
REMARK  Name = CHEMBL350927
REMARK                            x       y       z     vdW  Elec       q    Type
REMARK                         _______ _______ _______ _____ _____    ______ ____
ROOT
ATOM      1  C   LIG    1       -3.515 -11.514 -21.391  0.00  0.00    +0.565 C 
ATOM      2  N   LIG    1       -4.553 -10.954 -22.044  0.00  0.00    -0.717 N 
ATOM      3  H   LIG    1       -5.423 -10.905 -21.618  0.00  0.00    +0.398 HD
ATOM      4  O   LIG    1       -2.424 -11.576 -21.923  0.00  0.00    -0.513 OA
ENDROOT
BRANCH   2   5
ATOM      5  C   LIG    1       -4.366 -10.420 -23.395  0.00  0.00    +0.184 C 
ATOM      6  C   LIG    1       -5.708  -9.923 -23.936  0.00  0.00    +0.024 C 
ATOM      7  C   LIG    1       -5.513  -9.365 -25.348  0.00  0.00    -0.008 C 
ATOM      8  C   LIG    1       -4.971 -10.467 -26.261  0.00  0.00    +0.017 C 
ATOM      9  C   LIG    1       -3.629 -10.964 -25.720  0.00  0.00    -0.004 C 
ATOM     10  C   LIG    1       -2.635  -9.803 -25.676  0.00  0.00    +0.017 C 
ATOM     11  C   LIG    1       -3.177  -8.701 -24.763  0.00  0.00    -0.008 C 
ATOM     12  C   LIG    1       -4.518  -8.204 -25.305  0.00  0.00    +0.020 C 
ATOM     13  C   LIG    1       -3.371  -9.258 -23.352  0.00  0.00    +0.024 C 
ATOM     14  C   LIG    1       -3.824 -11.522 -24.309  0.00  0.00    +0.024 C 
ENDBRANCH   2   5
BRANCH   1  16
ATOM     15  C   LIG    1       -4.242 -11.243 -19.026  0.00  0.00    +0.183 A 
ATOM     16  C   LIG    1       -3.704 -12.053 -20.030  0.00  0.00    -0.127 A 
ATOM     17  C   LIG    1       -3.347 -13.372 -19.742  0.00  0.00    +0.105 A 
ATOM     18  C   LIG    1       -3.528 -13.871 -18.466  0.00  0.00    +0.080 A 
ATOM     19  C   LIG    1       -4.065 -13.059 -17.470  0.00  0.00    +0.178 A 
ATOM     20  C   LIG    1       -4.420 -11.747 -17.755  0.00  0.00    -0.073 A 
BRANCH  20  21
ATOM     21  N   LIG    1       -4.989 -10.888 -16.693  0.00  0.00    +0.035 N 
ATOM     22  O   LIG    1       -4.793  -9.695 -16.710  0.00  0.00    -0.129 OA
ATOM     23  O   LIG    1       -5.649 -11.380 -15.807  0.00  0.00    -0.154 OA
ENDBRANCH  20  21
BRANCH  18  24
ATOM     24  O   LIG    1       -3.181 -15.156 -18.183  0.00  0.00    -0.470 OA
ATOM     25  H   LIG    1       -3.722 -15.818 -18.634  0.00  0.00    +0.399 HD
ENDBRANCH  18  24
BRANCH  19  26
ATOM     26  O   LIG    1       -4.242 -13.551 -16.216  0.00  0.00    -0.458 OA
ATOM     27  H   LIG    1       -5.014 -13.189 -15.758  0.00  0.00    +0.408 HD
ENDBRANCH  19  26
ENDBRANCH   1  16
TORSDOF 5
ENDMDL
MODEL 9
REMARK VINA RESULT:      -6.2      3.638      7.638
REMARK  Name = CHEMBL350927
REMARK                            x       y       z     vdW  Elec       q    Type
REMARK                         _______ _______ _______ _____ _____    ______ ____
ROOT
ATOM      1  C   LIG    1       -1.519  -9.442 -21.451  0.00  0.00    +0.565 C 
ATOM      2  N   LIG    1       -2.233 -10.179 -22.325  0.00  0.00    -0.717 N 
ATOM      3  H   LIG    1       -2.300  -9.902 -23.252  0.00  0.00    +0.398 HD
ATOM      4  O   LIG    1       -1.435  -9.789 -20.289  0.00  0.00    -0.513 OA
ENDROOT
BRANCH   2   5
ATOM      5  C   LIG    1       -2.907 -11.400 -21.875  0.00  0.00    +0.184 C 
ATOM      6  C   LIG    1       -3.805 -11.074 -20.680  0.00  0.00    +0.024 C 
ATOM      7  C   LIG    1       -4.509 -12.348 -20.209  0.00  0.00    -0.008 C 
ATOM      8  C   LIG    1       -3.464 -13.385 -19.793  0.00  0.00    +0.017 C 
ATOM      9  C   LIG    1       -2.566 -13.711 -20.989  0.00  0.00    -0.004 C 
ATOM     10  C   LIG    1       -3.418 -14.272 -22.128  0.00  0.00    +0.017 C 
ATOM     11  C   LIG    1       -4.463 -13.235 -22.544  0.00  0.00    -0.008 C 
ATOM     12  C   LIG    1       -5.362 -12.910 -21.348  0.00  0.00    +0.020 C 
ATOM     13  C   LIG    1       -3.759 -11.962 -23.014  0.00  0.00    +0.024 C 
ATOM     14  C   LIG    1       -1.862 -12.437 -21.459  0.00  0.00    +0.024 C 
ENDBRANCH   2   5
BRANCH   1  16
ATOM     15  C   LIG    1       -1.220  -7.608 -23.107  0.00  0.00    +0.183 A 
ATOM     16  C   LIG    1       -0.841  -8.212 -21.905  0.00  0.00    -0.127 A 
ATOM     17  C   LIG    1        0.180  -7.650 -21.136  0.00  0.00    +0.105 A 
ATOM     18  C   LIG    1        0.811  -6.498 -21.565  0.00  0.00    +0.080 A 
ATOM     19  C   LIG    1        0.428  -5.900 -22.764  0.00  0.00    +0.178 A 
ATOM     20  C   LIG    1       -0.587  -6.459 -23.529  0.00  0.00    -0.073 A 
BRANCH  20  21
ATOM     21  N   LIG    1       -0.989  -5.820 -24.803  0.00  0.00    +0.035 N 
ATOM     22  O   LIG    1       -2.158  -5.611 -25.032  0.00  0.00    -0.129 OA
ATOM     23  O   LIG    1       -0.149  -5.509 -25.615  0.00  0.00    -0.154 OA
ENDBRANCH  20  21
BRANCH  18  24
ATOM     24  O   LIG    1        1.806  -5.948 -20.817  0.00  0.00    -0.470 OA
ATOM     25  H   LIG    1        2.566  -6.530 -20.685  0.00  0.00    +0.399 HD
ENDBRANCH  18  24
BRANCH  19  26
ATOM     26  O   LIG    1        1.049  -4.767 -23.185  0.00  0.00    -0.458 OA
ATOM     27  H   LIG    1        0.488  -4.188 -23.721  0.00  0.00    +0.408 HD
ENDBRANCH  19  26
ENDBRANCH   1  16
TORSDOF 5
ENDMDL
