MODEL 1
REMARK VINA RESULT:      -6.5      0.000      0.000
REMARK  Name = CHEMBL169465
REMARK                            x       y       z     vdW  Elec       q    Type
REMARK                         _______ _______ _______ _____ _____    ______ ____
ROOT
ATOM      1  C   LIG    1       -5.198  -1.832 -20.033  0.00  0.00    +0.155 A 
ATOM      2  C   LIG    1       -6.334  -2.418 -19.470  0.00  0.00    -0.322 A 
ATOM      3  C   LIG    1       -7.132  -1.686 -18.580  0.00  0.00    +0.099 A 
ATOM      4  C   LIG    1       -6.798  -0.386 -18.259  0.00  0.00    -0.046 A 
ATOM      5  C   LIG    1       -5.667   0.206 -18.817  0.00  0.00    +0.315 A 
ATOM      6  O   LIG    1       -5.343   1.483 -18.499  0.00  0.00    -0.661 OA
ATOM      7  C   LIG    1       -4.863  -0.521 -19.709  0.00  0.00    -0.205 A 
ENDROOT
BRANCH   2   8
ATOM      8  C   LIG    1       -6.693  -3.802 -19.810  0.00  0.00    +0.477 C 
ATOM      9  O   LIG    1       -6.684  -4.658 -18.951  0.00  0.00    -0.504 OA
ENDBRANCH   2   8
BRANCH   4  10
ATOM     10  O   LIG    1       -7.577   0.321 -17.395  0.00  0.00    -0.486 OA
ATOM     11  H   LIG    1       -7.674  -0.092 -16.526  0.00  0.00    +0.364 HD
ENDBRANCH   4  10
BRANCH   7  12
ATOM     12  C   LIG    1       -3.699   0.086 -20.283  0.00  0.00    +0.305 C 
ATOM     13  N   LIG    1       -2.777   0.566 -20.739  0.00  0.00    -0.490 NA
ENDBRANCH   7  12
TORSDOF 3
ENDMDL
MODEL 2
REMARK VINA RESULT:      -6.4      2.255      4.012
REMARK  Name = CHEMBL169465
REMARK                            x       y       z     vdW  Elec       q    Type
REMARK                         _______ _______ _______ _____ _____    ______ ____
ROOT
ATOM      1  C   LIG    1       -4.577  -0.968 -20.055  0.00  0.00    +0.155 A 
ATOM      2  C   LIG    1       -4.182   0.366 -19.940  0.00  0.00    -0.322 A 
ATOM      3  C   LIG    1       -4.960   1.266 -19.200  0.00  0.00    +0.099 A 
ATOM      4  C   LIG    1       -6.117   0.837 -18.582  0.00  0.00    -0.046 A 
ATOM      5  C   LIG    1       -6.519  -0.493 -18.691  0.00  0.00    +0.315 A 
ATOM      6  O   LIG    1       -7.656  -0.910 -18.083  0.00  0.00    -0.661 OA
ATOM      7  C   LIG    1       -5.745  -1.400 -19.432  0.00  0.00    -0.205 A 
ENDROOT
BRANCH   2   8
ATOM      8  C   LIG    1       -2.950   0.827 -20.596  0.00  0.00    +0.477 C 
ATOM      9  O   LIG    1       -2.953   1.855 -21.238  0.00  0.00    -0.504 OA
ENDBRANCH   2   8
BRANCH   4  10
ATOM     10  O   LIG    1       -6.868   1.715 -17.863  0.00  0.00    -0.486 OA
ATOM     11  H   LIG    1       -6.439   2.030 -17.056  0.00  0.00    +0.364 HD
ENDBRANCH   4  10
BRANCH   7  12
ATOM     12  C   LIG    1       -6.156  -2.767 -19.546  0.00  0.00    +0.305 C 
ATOM     13  N   LIG    1       -6.484  -3.851 -19.637  0.00  0.00    -0.490 NA
ENDBRANCH   7  12
TORSDOF 3
ENDMDL
MODEL 3
REMARK VINA RESULT:      -6.1      2.129      3.023
REMARK  Name = CHEMBL169465
REMARK                            x       y       z     vdW  Elec       q    Type
REMARK                         _______ _______ _______ _____ _____    ______ ____
ROOT
ATOM      1  C   LIG    1       -6.703  -1.254 -18.704  0.00  0.00    +0.155 A 
ATOM      2  C   LIG    1       -6.107  -2.187 -19.556  0.00  0.00    -0.322 A 
ATOM      3  C   LIG    1       -4.889  -1.887 -20.180  0.00  0.00    +0.099 A 
ATOM      4  C   LIG    1       -4.274  -0.673 -19.953  0.00  0.00    -0.046 A 
ATOM      5  C   LIG    1       -4.861   0.263 -19.104  0.00  0.00    +0.315 A 
ATOM      6  O   LIG    1       -4.254   1.454 -18.884  0.00  0.00    -0.661 OA
ATOM      7  C   LIG    1       -6.082  -0.029 -18.476  0.00  0.00    -0.205 A 
ENDROOT
BRANCH   2   8
ATOM      8  C   LIG    1       -6.758  -3.481 -19.799  0.00  0.00    +0.477 C 
ATOM      9  O   LIG    1       -6.465  -4.444 -19.123  0.00  0.00    -0.504 OA
ENDBRANCH   2   8
BRANCH   4  10
ATOM     10  O   LIG    1       -3.090  -0.388 -20.561  0.00  0.00    -0.486 OA
ATOM     11  H   LIG    1       -2.466   0.093 -19.999  0.00  0.00    +0.364 HD
ENDBRANCH   4  10
BRANCH   7  12
ATOM     12  C   LIG    1       -6.687   0.931 -17.603  0.00  0.00    +0.305 C 
ATOM     13  N   LIG    1       -7.168   1.692 -16.911  0.00  0.00    -0.490 NA
ENDBRANCH   7  12
TORSDOF 3
ENDMDL
MODEL 4
REMARK VINA RESULT:      -5.6      3.550      4.832
REMARK  Name = CHEMBL169465
REMARK                            x       y       z     vdW  Elec       q    Type
REMARK                         _______ _______ _______ _____ _____    ______ ____
ROOT
ATOM      1  C   LIG    1       -7.280  -4.696 -18.437  0.00  0.00    +0.155 A 
ATOM      2  C   LIG    1       -8.379  -5.551 -18.337  0.00  0.00    -0.322 A 
ATOM      3  C   LIG    1       -9.283  -5.658 -19.403  0.00  0.00    +0.099 A 
ATOM      4  C   LIG    1       -9.090  -4.919 -20.552  0.00  0.00    -0.046 A 
ATOM      5  C   LIG    1       -7.995  -4.064 -20.661  0.00  0.00    +0.315 A 
ATOM      6  O   LIG    1       -7.809  -3.340 -21.791  0.00  0.00    -0.661 OA
ATOM      7  C   LIG    1       -7.086  -3.951 -19.597  0.00  0.00    -0.205 A 
ENDROOT
BRANCH   2   8
ATOM      8  C   LIG    1       -8.588  -6.340 -17.115  0.00  0.00    +0.477 C 
ATOM      9  O   LIG    1       -8.350  -7.529 -17.113  0.00  0.00    -0.504 OA
ENDBRANCH   2   8
BRANCH   4  10
ATOM     10  O   LIG    1       -9.970  -5.027 -21.584  0.00  0.00    -0.486 OA
ATOM     11  H   LIG    1       -9.733  -4.500 -22.360  0.00  0.00    +0.364 HD
ENDBRANCH   4  10
BRANCH   7  12
ATOM     12  C   LIG    1       -5.960  -3.072 -19.706  0.00  0.00    +0.305 C 
ATOM     13  N   LIG    1       -5.069  -2.374 -19.793  0.00  0.00    -0.490 NA
ENDBRANCH   7  12
TORSDOF 3
ENDMDL
MODEL 5
REMARK VINA RESULT:      -5.5      3.728      5.574
REMARK  Name = CHEMBL169465
REMARK                            x       y       z     vdW  Elec       q    Type
REMARK                         _______ _______ _______ _____ _____    ______ ____
ROOT
ATOM      1  C   LIG    1       -7.427  -3.479 -21.224  0.00  0.00    +0.155 A 
ATOM      2  C   LIG    1       -6.838  -3.325 -19.967  0.00  0.00    -0.322 A 
ATOM      3  C   LIG    1       -7.421  -3.926 -18.842  0.00  0.00    +0.099 A 
ATOM      4  C   LIG    1       -8.575  -4.671 -18.974  0.00  0.00    -0.046 A 
ATOM      5  C   LIG    1       -9.168  -4.830 -20.225  0.00  0.00    +0.315 A 
ATOM      6  O   LIG    1      -10.301  -5.563 -20.351  0.00  0.00    -0.661 OA
ATOM      7  C   LIG    1       -8.591  -4.231 -21.356  0.00  0.00    -0.205 A 
ENDROOT
BRANCH   2   8
ATOM      8  C   LIG    1       -5.609  -2.533 -19.822  0.00  0.00    +0.477 C 
ATOM      9  O   LIG    1       -5.182  -1.900 -20.764  0.00  0.00    -0.504 OA
ENDBRANCH   2   8
BRANCH   4  10
ATOM     10  O   LIG    1       -9.136  -5.254 -17.880  0.00  0.00    -0.486 OA
ATOM     11  H   LIG    1       -9.390  -4.627 -17.188  0.00  0.00    +0.364 HD
ENDBRANCH   4  10
BRANCH   7  12
ATOM     12  C   LIG    1       -9.199  -4.392 -22.643  0.00  0.00    +0.305 C 
ATOM     13  N   LIG    1       -9.682  -4.519 -23.663  0.00  0.00    -0.490 NA
ENDBRANCH   7  12
TORSDOF 3
ENDMDL
MODEL 6
REMARK VINA RESULT:      -5.2     10.076     11.927
REMARK  Name = CHEMBL169465
REMARK                            x       y       z     vdW  Elec       q    Type
REMARK                         _______ _______ _______ _____ _____    ______ ____
ROOT
ATOM      1  C   LIG    1       -3.190 -13.171 -19.370  0.00  0.00    +0.155 A 
ATOM      2  C   LIG    1       -3.437 -14.171 -18.427  0.00  0.00    -0.322 A 
ATOM      3  C   LIG    1       -4.030 -13.846 -17.200  0.00  0.00    +0.099 A 
ATOM      4  C   LIG    1       -4.371 -12.538 -16.920  0.00  0.00    -0.046 A 
ATOM      5  C   LIG    1       -4.129 -11.535 -17.856  0.00  0.00    +0.315 A 
ATOM      6  O   LIG    1       -4.466 -10.252 -17.578  0.00  0.00    -0.661 OA
ATOM      7  C   LIG    1       -3.534 -11.853 -19.088  0.00  0.00    -0.205 A 
ENDROOT
BRANCH   2   8
ATOM      8  C   LIG    1       -3.075 -15.565 -18.721  0.00  0.00    +0.477 C 
ATOM      9  O   LIG    1       -1.924 -15.929 -18.606  0.00  0.00    -0.504 OA
ENDBRANCH   2   8
BRANCH   4  10
ATOM     10  O   LIG    1       -4.948 -12.228 -15.728  0.00  0.00    -0.486 OA
ATOM     11  H   LIG    1       -4.920 -12.945 -15.079  0.00  0.00    +0.364 HD
ENDBRANCH   4  10
BRANCH   7  12
ATOM     12  C   LIG    1       -3.284 -10.823 -20.050  0.00  0.00    +0.305 C 
ATOM     13  N   LIG    1       -3.086 -10.005 -20.813  0.00  0.00    -0.490 NA
ENDBRANCH   7  12
TORSDOF 3
ENDMDL
MODEL 7
REMARK VINA RESULT:      -5.1      3.281      4.862
REMARK  Name = CHEMBL169465
REMARK                            x       y       z     vdW  Elec       q    Type
REMARK                         _______ _______ _______ _____ _____    ______ ____
ROOT
ATOM      1  C   LIG    1       -7.816  -3.700 -21.412  0.00  0.00    +0.155 A 
ATOM      2  C   LIG    1       -8.962  -4.469 -21.627  0.00  0.00    -0.322 A 
ATOM      3  C   LIG    1       -9.489  -5.247 -20.588  0.00  0.00    +0.099 A 
ATOM      4  C   LIG    1       -8.879  -5.256 -19.350  0.00  0.00    -0.046 A 
ATOM      5  C   LIG    1       -7.736  -4.491 -19.126  0.00  0.00    +0.315 A 
ATOM      6  O   LIG    1       -7.140  -4.502 -17.909  0.00  0.00    -0.661 OA
ATOM      7  C   LIG    1       -7.201  -3.709 -20.163  0.00  0.00    -0.205 A 
ENDROOT
BRANCH   2   8
ATOM      8  C   LIG    1       -9.615  -4.462 -22.943  0.00  0.00    +0.477 C 
ATOM      9  O   LIG    1       -9.074  -4.990 -23.891  0.00  0.00    -0.504 OA
ENDBRANCH   2   8
BRANCH   4  10
ATOM     10  O   LIG    1       -9.396  -6.012 -18.344  0.00  0.00    -0.486 OA
ATOM     11  H   LIG    1       -9.553  -6.935 -18.587  0.00  0.00    +0.364 HD
ENDBRANCH   4  10
BRANCH   7  12
ATOM     12  C   LIG    1       -6.026  -2.923 -19.935  0.00  0.00    +0.305 C 
ATOM     13  N   LIG    1       -5.094  -2.300 -19.754  0.00  0.00    -0.490 NA
ENDBRANCH   7  12
TORSDOF 3
ENDMDL
MODEL 8
REMARK VINA RESULT:      -5.0      8.129     10.542
REMARK  Name = CHEMBL169465
REMARK                            x       y       z     vdW  Elec       q    Type
REMARK                         _______ _______ _______ _____ _____    ______ ____
ROOT
ATOM      1  C   LIG    1       -4.581 -10.007 -18.389  0.00  0.00    +0.155 A 
ATOM      2  C   LIG    1       -5.298  -9.313 -17.412  0.00  0.00    -0.322 A 
ATOM      3  C   LIG    1       -5.646  -9.951 -16.213  0.00  0.00    +0.099 A 
ATOM      4  C   LIG    1       -5.280 -11.264 -15.995  0.00  0.00    -0.046 A 
ATOM      5  C   LIG    1       -4.564 -11.963 -16.965  0.00  0.00    +0.315 A 
ATOM      6  O   LIG    1       -4.208 -13.252 -16.747  0.00  0.00    -0.661 OA
ATOM      7  C   LIG    1       -4.213 -11.331 -18.169  0.00  0.00    -0.205 A 
ENDROOT
BRANCH   2   8
ATOM      8  C   LIG    1       -5.688  -7.915 -17.640  0.00  0.00    +0.477 C 
ATOM      9  O   LIG    1       -6.861  -7.616 -17.706  0.00  0.00    -0.504 OA
ENDBRANCH   2   8
BRANCH   4  10
ATOM     10  O   LIG    1       -5.619 -11.878 -14.829  0.00  0.00    -0.486 OA
ATOM     11  H   LIG    1       -6.554 -11.790 -14.596  0.00  0.00    +0.364 HD
ENDBRANCH   4  10
BRANCH   7  12
ATOM     12  C   LIG    1       -3.478 -12.048 -19.167  0.00  0.00    +0.305 C 
ATOM     13  N   LIG    1       -2.895 -12.616 -19.958  0.00  0.00    -0.490 NA
ENDBRANCH   7  12
TORSDOF 3
ENDMDL
MODEL 9
REMARK VINA RESULT:      -4.9      9.341     10.829
REMARK  Name = CHEMBL169465
REMARK                            x       y       z     vdW  Elec       q    Type
REMARK                         _______ _______ _______ _____ _____    ______ ____
ROOT
ATOM      1  C   LIG    1       -3.436 -11.599 -18.779  0.00  0.00    +0.155 A 
ATOM      2  C   LIG    1       -3.497 -10.248 -19.127  0.00  0.00    -0.322 A 
ATOM      3  C   LIG    1       -4.239  -9.355 -18.341  0.00  0.00    +0.099 A 
ATOM      4  C   LIG    1       -4.910  -9.808 -17.223  0.00  0.00    -0.046 A 
ATOM      5  C   LIG    1       -4.853 -11.155 -16.869  0.00  0.00    +0.315 A 
ATOM      6  O   LIG    1       -5.513 -11.596 -15.771  0.00  0.00    -0.661 OA
ATOM      7  C   LIG    1       -4.113 -12.056 -17.652  0.00  0.00    -0.205 A 
ENDROOT
BRANCH   2   8
ATOM      8  C   LIG    1       -2.784  -9.762 -20.316  0.00  0.00    +0.477 C 
ATOM      9  O   LIG    1       -1.618  -9.438 -20.233  0.00  0.00    -0.504 OA
ENDBRANCH   2   8
BRANCH   4  10
ATOM     10  O   LIG    1       -5.627  -8.938 -16.463  0.00  0.00    -0.486 OA
ATOM     11  H   LIG    1       -6.170  -8.323 -16.976  0.00  0.00    +0.364 HD
ENDBRANCH   4  10
BRANCH   7  12
ATOM     12  C   LIG    1       -4.055 -13.440 -17.290  0.00  0.00    +0.305 C 
ATOM     13  N   LIG    1       -4.008 -14.538 -17.005  0.00  0.00    -0.490 NA
ENDBRANCH   7  12
TORSDOF 3
ENDMDL
