MODEL 1
REMARK VINA RESULT:      -5.5      0.000      0.000
REMARK  Name = CHEMBL1089503
REMARK                            x       y       z     vdW  Elec       q    Type
REMARK                         _______ _______ _______ _____ _____    ______ ____
ROOT
ATOM      1  C   LIG    1       -3.902 -13.821 -17.744  0.00  0.00    +0.095 A 
ATOM      2  C   LIG    1       -3.350 -13.897 -19.051  0.00  0.00    -0.186 A 
ATOM      3  C   LIG    1       -3.180 -12.672 -19.737  0.00  0.00    -0.025 A 
ATOM      4  S   LIG    1       -2.484 -13.161 -21.295  0.00  0.00    +0.058 S 
ATOM      5  C   LIG    1       -2.434 -14.923 -21.015  0.00  0.00    -0.180 A 
ATOM      6  C   LIG    1       -3.528 -11.460 -19.179  0.00  0.00    -0.170 A 
ATOM      7  C   LIG    1       -4.063 -11.425 -17.903  0.00  0.00    +0.317 A 
ATOM      8  O   LIG    1       -4.412 -10.240 -17.338  0.00  0.00    -0.667 OA
ATOM      9  C   LIG    1       -2.947 -15.045 -19.756  0.00  0.00    -0.007 A 
ATOM     10 CL   LIG    1       -3.101 -16.613 -19.027  0.00  0.00    -0.060 Cl
ATOM     11  C   LIG    1       -4.242 -12.622 -17.200  0.00  0.00    -0.006 A 
ENDROOT
BRANCH   5  12
ATOM     12  C   LIG    1       -1.960 -15.975 -21.911  0.00  0.00    +0.562 C 
ATOM     13  O   LIG    1       -0.781 -16.307 -21.896  0.00  0.00    -0.656 OA
ATOM     14  O   LIG    1       -2.741 -16.524 -22.678  0.00  0.00    -0.683 OA
ENDBRANCH   5  12
BRANCH   6  15
ATOM     15  N   LIG    1       -3.331 -10.206 -19.939  0.00  0.00    +0.072 N 
ATOM     16  O   LIG    1       -2.482  -9.418 -19.594  0.00  0.00    -0.175 OA
ATOM     17  O   LIG    1       -4.019  -9.969 -20.905  0.00  0.00    -0.174 OA
ENDBRANCH   6  15
BRANCH  11  18
ATOM     18  O   LIG    1       -4.768 -12.586 -15.947  0.00  0.00    -0.482 OA
ATOM     19  H   LIG    1       -5.714 -12.785 -15.910  0.00  0.00    +0.367 HD
ENDBRANCH  11  18
TORSDOF 3
ENDMDL
MODEL 2
REMARK VINA RESULT:      -5.4     12.036     13.231
REMARK  Name = CHEMBL1089503
REMARK                            x       y       z     vdW  Elec       q    Type
REMARK                         _______ _______ _______ _____ _____    ______ ____
ROOT
ATOM      1  C   LIG    1        7.733  -4.071 -19.432  0.00  0.00    +0.095 A 
ATOM      2  C   LIG    1        7.052  -5.234 -18.983  0.00  0.00    -0.186 A 
ATOM      3  C   LIG    1        6.695  -5.268 -17.614  0.00  0.00    -0.025 A 
ATOM      4  S   LIG    1        5.882  -6.836 -17.435  0.00  0.00    +0.058 S 
ATOM      5  C   LIG    1        6.027  -7.398 -19.123  0.00  0.00    -0.180 A 
ATOM      6  C   LIG    1        6.987  -4.234 -16.751  0.00  0.00    -0.170 A 
ATOM      7  C   LIG    1        7.652  -3.117 -17.225  0.00  0.00    +0.317 A 
ATOM      8  O   LIG    1        7.948  -2.088 -16.388  0.00  0.00    -0.667 OA
ATOM      9  C   LIG    1        6.683  -6.366 -19.731  0.00  0.00    -0.007 A 
ATOM     10 CL   LIG    1        7.061  -6.452 -21.423  0.00  0.00    -0.060 Cl
ATOM     11  C   LIG    1        8.017  -3.056 -18.575  0.00  0.00    -0.006 A 
ENDROOT
BRANCH   5  12
ATOM     12  C   LIG    1        5.559  -8.652 -19.710  0.00  0.00    +0.562 C 
ATOM     13  O   LIG    1        6.177  -9.690 -19.507  0.00  0.00    -0.656 OA
ATOM     14  O   LIG    1        4.550  -8.665 -20.404  0.00  0.00    -0.683 OA
ENDBRANCH   5  12
BRANCH   6  15
ATOM     15  N   LIG    1        6.592  -4.318 -15.327  0.00  0.00    +0.072 N 
ATOM     16  O   LIG    1        5.825  -3.506 -14.864  0.00  0.00    -0.175 OA
ATOM     17  O   LIG    1        7.036  -5.198 -14.627  0.00  0.00    -0.174 OA
ENDBRANCH   6  15
BRANCH  11  18
ATOM     18  O   LIG    1        8.670  -1.957 -19.038  0.00  0.00    -0.482 OA
ATOM     19  H   LIG    1        8.158  -1.430 -19.667  0.00  0.00    +0.367 HD
ENDBRANCH  11  18
TORSDOF 3
ENDMDL
MODEL 3
REMARK VINA RESULT:      -5.1     13.917     15.457
REMARK  Name = CHEMBL1089503
REMARK                            x       y       z     vdW  Elec       q    Type
REMARK                         _______ _______ _______ _____ _____    ______ ____
ROOT
ATOM      1  C   LIG    1        7.229  -2.560 -16.426  0.00  0.00    +0.095 A 
ATOM      2  C   LIG    1        7.626  -2.485 -17.788  0.00  0.00    -0.186 A 
ATOM      3  C   LIG    1        7.566  -3.688 -18.530  0.00  0.00    -0.025 A 
ATOM      4  S   LIG    1        8.122  -3.207 -20.146  0.00  0.00    +0.058 S 
ATOM      5  C   LIG    1        8.412  -1.477 -19.817  0.00  0.00    -0.180 A 
ATOM      6  C   LIG    1        7.149  -4.878 -17.973  0.00  0.00    -0.170 A 
ATOM      7  C   LIG    1        6.771  -4.912 -16.642  0.00  0.00    +0.317 A 
ATOM      8  O   LIG    1        6.357  -6.077 -16.076  0.00  0.00    -0.667 OA
ATOM      9  C   LIG    1        8.072  -1.358 -18.500  0.00  0.00    -0.007 A 
ATOM     10 CL   LIG    1        8.191   0.181 -17.707  0.00  0.00    -0.060 Cl
ATOM     11  C   LIG    1        6.819  -3.737 -15.884  0.00  0.00    -0.006 A 
ENDROOT
BRANCH   5  12
ATOM     12  C   LIG    1        8.895  -0.444 -20.731  0.00  0.00    +0.562 C 
ATOM     13  O   LIG    1       10.062  -0.077 -20.677  0.00  0.00    -0.656 OA
ATOM     14  O   LIG    1        8.133   0.054 -21.550  0.00  0.00    -0.683 OA
ENDBRANCH   5  12
BRANCH   6  15
ATOM     15  N   LIG    1        7.106  -6.110 -18.792  0.00  0.00    +0.072 N 
ATOM     16  O   LIG    1        8.083  -6.817 -18.872  0.00  0.00    -0.175 OA
ATOM     17  O   LIG    1        6.093  -6.409 -19.381  0.00  0.00    -0.174 OA
ENDBRANCH   6  15
BRANCH  11  18
ATOM     18  O   LIG    1        6.447  -3.773 -14.576  0.00  0.00    -0.482 OA
ATOM     19  H   LIG    1        5.551  -3.447 -14.412  0.00  0.00    +0.367 HD
ENDBRANCH  11  18
TORSDOF 3
ENDMDL
MODEL 4
REMARK VINA RESULT:      -4.8     12.085     13.017
REMARK  Name = CHEMBL1089503
REMARK                            x       y       z     vdW  Elec       q    Type
REMARK                         _______ _______ _______ _____ _____    ______ ____
ROOT
ATOM      1  C   LIG    1        6.552  -6.080 -16.709  0.00  0.00    +0.095 A 
ATOM      2  C   LIG    1        6.793  -6.127 -18.108  0.00  0.00    -0.186 A 
ATOM      3  C   LIG    1        7.269  -4.936 -18.708  0.00  0.00    -0.025 A 
ATOM      4  S   LIG    1        7.447  -5.376 -20.419  0.00  0.00    +0.058 S 
ATOM      5  C   LIG    1        6.906  -7.073 -20.309  0.00  0.00    -0.180 A 
ATOM      6  C   LIG    1        7.489  -3.784 -17.984  0.00  0.00    -0.170 A 
ATOM      7  C   LIG    1        7.242  -3.776 -16.623  0.00  0.00    +0.317 A 
ATOM      8  O   LIG    1        7.455  -2.649 -15.893  0.00  0.00    -0.667 OA
ATOM      9  C   LIG    1        6.620  -7.215 -18.982  0.00  0.00    -0.007 A 
ATOM     10 CL   LIG    1        6.042  -8.735 -18.374  0.00  0.00    -0.060 Cl
ATOM     11  C   LIG    1        6.772  -4.940 -16.003  0.00  0.00    -0.006 A 
ENDROOT
BRANCH   5  12
ATOM     12  C   LIG    1        6.797  -8.065 -21.376  0.00  0.00    +0.562 C 
ATOM     13  O   LIG    1        5.784  -8.115 -22.063  0.00  0.00    -0.656 OA
ATOM     14  O   LIG    1        7.717  -8.846 -21.583  0.00  0.00    -0.683 OA
ENDBRANCH   5  12
BRANCH   6  15
ATOM     15  N   LIG    1        7.987  -2.565 -18.659  0.00  0.00    +0.072 N 
ATOM     16  O   LIG    1        7.205  -1.790 -19.160  0.00  0.00    -0.175 OA
ATOM     17  O   LIG    1        9.174  -2.342 -18.708  0.00  0.00    -0.174 OA
ENDBRANCH   6  15
BRANCH  11  18
ATOM     18  O   LIG    1        6.530  -4.929 -14.665  0.00  0.00    -0.482 OA
ATOM     19  H   LIG    1        6.619  -4.058 -14.255  0.00  0.00    +0.367 HD
ENDBRANCH  11  18
TORSDOF 3
ENDMDL
MODEL 5
REMARK VINA RESULT:      -4.7     12.805     14.510
REMARK  Name = CHEMBL1089503
REMARK                            x       y       z     vdW  Elec       q    Type
REMARK                         _______ _______ _______ _____ _____    ______ ____
ROOT
ATOM      1  C   LIG    1        6.316  -5.927 -17.423  0.00  0.00    +0.095 A 
ATOM      2  C   LIG    1        6.996  -4.796 -17.949  0.00  0.00    -0.186 A 
ATOM      3  C   LIG    1        7.593  -4.954 -19.222  0.00  0.00    -0.025 A 
ATOM      4  S   LIG    1        8.326  -3.368 -19.536  0.00  0.00    +0.058 S 
ATOM      5  C   LIG    1        7.843  -2.554 -18.023  0.00  0.00    -0.180 A 
ATOM      6  C   LIG    1        7.527  -6.137 -19.925  0.00  0.00    -0.170 A 
ATOM      7  C   LIG    1        6.857  -7.218 -19.381  0.00  0.00    +0.317 A 
ATOM      8  O   LIG    1        6.782  -8.393 -20.060  0.00  0.00    -0.667 OA
ATOM      9  C   LIG    1        7.151  -3.528 -17.362  0.00  0.00    -0.007 A 
ATOM     10 CL   LIG    1        6.466  -3.202 -15.801  0.00  0.00    -0.060 Cl
ATOM     11  C   LIG    1        6.256  -7.091 -18.123  0.00  0.00    -0.006 A 
ENDROOT
BRANCH   5  12
ATOM     12  C   LIG    1        8.119  -1.184 -17.597  0.00  0.00    +0.562 C 
ATOM     13  O   LIG    1        7.582  -0.244 -18.172  0.00  0.00    -0.656 OA
ATOM     14  O   LIG    1        8.887  -0.974 -16.666  0.00  0.00    -0.683 OA
ENDBRANCH   5  12
BRANCH   6  15
ATOM     15  N   LIG    1        8.169  -6.251 -21.254  0.00  0.00    +0.072 N 
ATOM     16  O   LIG    1        7.546  -5.973 -22.252  0.00  0.00    -0.175 OA
ATOM     17  O   LIG    1        9.317  -6.622 -21.342  0.00  0.00    -0.174 OA
ENDBRANCH   6  15
BRANCH  11  18
ATOM     18  O   LIG    1        5.598  -8.154 -17.589  0.00  0.00    -0.482 OA
ATOM     19  H   LIG    1        5.250  -8.773 -18.247  0.00  0.00    +0.367 HD
ENDBRANCH  11  18
TORSDOF 3
ENDMDL
MODEL 6
REMARK VINA RESULT:      -4.6      3.553      4.818
REMARK  Name = CHEMBL1089503
REMARK                            x       y       z     vdW  Elec       q    Type
REMARK                         _______ _______ _______ _____ _____    ______ ____
ROOT
ATOM      1  C   LIG    1       -2.893 -10.290 -18.730  0.00  0.00    +0.095 A 
ATOM      2  C   LIG    1       -2.341 -10.545 -20.014  0.00  0.00    -0.186 A 
ATOM      3  C   LIG    1       -2.642 -11.801 -20.592  0.00  0.00    -0.025 A 
ATOM      4  S   LIG    1       -1.799 -11.752 -22.154  0.00  0.00    +0.058 S 
ATOM      5  C   LIG    1       -1.088 -10.121 -22.014  0.00  0.00    -0.180 A 
ATOM      6  C   LIG    1       -3.426 -12.738 -19.954  0.00  0.00    -0.170 A 
ATOM      7  C   LIG    1       -3.946 -12.454 -18.703  0.00  0.00    +0.317 A 
ATOM      8  O   LIG    1       -4.722 -13.365 -18.059  0.00  0.00    -0.667 OA
ATOM      9  C   LIG    1       -1.529  -9.702 -20.792  0.00  0.00    -0.007 A 
ATOM     10 CL   LIG    1       -1.085  -8.132 -20.198  0.00  0.00    -0.060 Cl
ATOM     11  C   LIG    1       -3.666 -11.219 -18.107  0.00  0.00    -0.006 A 
ENDROOT
BRANCH   5  12
ATOM     12  C   LIG    1       -0.244  -9.410 -22.971  0.00  0.00    +0.562 C 
ATOM     13  O   LIG    1        0.974  -9.429 -22.845  0.00  0.00    -0.656 OA
ATOM     14  O   LIG    1       -0.753  -8.794 -23.899  0.00  0.00    -0.683 OA
ENDBRANCH   5  12
BRANCH   6  15
ATOM     15  N   LIG    1       -3.711 -14.038 -20.602  0.00  0.00    +0.072 N 
ATOM     16  O   LIG    1       -3.120 -15.031 -20.248  0.00  0.00    -0.175 OA
ATOM     17  O   LIG    1       -4.535 -14.106 -21.484  0.00  0.00    -0.174 OA
ENDBRANCH   6  15
BRANCH  11  18
ATOM     18  O   LIG    1       -4.177 -10.942 -16.878  0.00  0.00    -0.482 OA
ATOM     19  H   LIG    1       -3.730 -11.399 -16.152  0.00  0.00    +0.367 HD
ENDBRANCH  11  18
TORSDOF 3
ENDMDL
MODEL 7
REMARK VINA RESULT:      -4.6     11.447     13.272
REMARK  Name = CHEMBL1089503
REMARK                            x       y       z     vdW  Elec       q    Type
REMARK                         _______ _______ _______ _____ _____    ______ ____
ROOT
ATOM      1  C   LIG    1        7.397  -5.419 -20.536  0.00  0.00    +0.095 A 
ATOM      2  C   LIG    1        6.950  -5.640 -19.206  0.00  0.00    -0.186 A 
ATOM      3  C   LIG    1        6.297  -6.869 -18.955  0.00  0.00    -0.025 A 
ATOM      4  S   LIG    1        5.898  -6.782 -17.227  0.00  0.00    +0.058 S 
ATOM      5  C   LIG    1        6.583  -5.170 -16.884  0.00  0.00    -0.180 A 
ATOM      6  C   LIG    1        6.096  -7.812 -19.940  0.00  0.00    -0.170 A 
ATOM      7  C   LIG    1        6.544  -7.562 -21.225  0.00  0.00    +0.317 A 
ATOM      8  O   LIG    1        6.355  -8.480 -22.209  0.00  0.00    -0.667 OA
ATOM      9  C   LIG    1        7.077  -4.786 -18.096  0.00  0.00    -0.007 A 
ATOM     10 CL   LIG    1        7.860  -3.246 -18.268  0.00  0.00    -0.060 Cl
ATOM     11  C   LIG    1        7.195  -6.354 -21.503  0.00  0.00    -0.006 A 
ENDROOT
BRANCH   5  12
ATOM     12  C   LIG    1        6.608  -4.442 -15.617  0.00  0.00    +0.562 C 
ATOM     13  O   LIG    1        6.264  -3.267 -15.579  0.00  0.00    -0.656 OA
ATOM     14  O   LIG    1        6.974  -5.006 -14.593  0.00  0.00    -0.683 OA
ENDBRANCH   5  12
BRANCH   6  15
ATOM     15  N   LIG    1        5.405  -9.083 -19.626  0.00  0.00    +0.072 N 
ATOM     16  O   LIG    1        6.040 -10.034 -19.234  0.00  0.00    -0.175 OA
ATOM     17  O   LIG    1        4.207  -9.170 -19.760  0.00  0.00    -0.174 OA
ENDBRANCH   6  15
BRANCH  11  18
ATOM     18  O   LIG    1        7.634  -6.110 -22.766  0.00  0.00    -0.482 OA
ATOM     19  H   LIG    1        7.085  -6.505 -23.458  0.00  0.00    +0.367 HD
ENDBRANCH  11  18
TORSDOF 3
ENDMDL
MODEL 8
REMARK VINA RESULT:      -4.6      5.555      7.206
REMARK  Name = CHEMBL1089503
REMARK                            x       y       z     vdW  Elec       q    Type
REMARK                         _______ _______ _______ _____ _____    ______ ____
ROOT
ATOM      1  C   LIG    1       -1.991  -7.413 -23.657  0.00  0.00    +0.095 A 
ATOM      2  C   LIG    1       -1.661  -8.374 -22.664  0.00  0.00    -0.186 A 
ATOM      3  C   LIG    1       -0.434  -8.184 -21.984  0.00  0.00    -0.025 A 
ATOM      4  S   LIG    1       -0.374  -9.548 -20.849  0.00  0.00    +0.058 S 
ATOM      5  C   LIG    1       -1.924 -10.317 -21.284  0.00  0.00    -0.180 A 
ATOM      6  C   LIG    1        0.406  -7.128 -22.262  0.00  0.00    -0.170 A 
ATOM      7  C   LIG    1        0.052  -6.212 -23.237  0.00  0.00    +0.317 A 
ATOM      8  O   LIG    1        0.868  -5.164 -23.523  0.00  0.00    -0.667 OA
ATOM      9  C   LIG    1       -2.404  -9.499 -22.265  0.00  0.00    -0.007 A 
ATOM     10 CL   LIG    1       -3.928  -9.847 -23.019  0.00  0.00    -0.060 Cl
ATOM     11  C   LIG    1       -1.156  -6.374 -23.925  0.00  0.00    -0.006 A 
ENDROOT
BRANCH   5  12
ATOM     12  C   LIG    1       -2.530 -11.525 -20.727  0.00  0.00    +0.562 C 
ATOM     13  O   LIG    1       -2.502 -12.572 -21.361  0.00  0.00    -0.656 OA
ATOM     14  O   LIG    1       -3.065 -11.490 -19.626  0.00  0.00    -0.683 OA
ENDBRANCH   5  12
BRANCH   6  15
ATOM     15  N   LIG    1        1.679  -6.974 -21.522  0.00  0.00    +0.072 N 
ATOM     16  O   LIG    1        2.646  -7.627 -21.842  0.00  0.00    -0.175 OA
ATOM     17  O   LIG    1        1.753  -6.197 -20.599  0.00  0.00    -0.174 OA
ENDBRANCH   6  15
BRANCH  11  18
ATOM     18  O   LIG    1       -1.503  -5.473 -24.882  0.00  0.00    -0.482 OA
ATOM     19  H   LIG    1       -1.870  -4.649 -24.534  0.00  0.00    +0.367 HD
ENDBRANCH  11  18
TORSDOF 3
ENDMDL
MODEL 9
REMARK VINA RESULT:      -4.6      5.784      7.332
REMARK  Name = CHEMBL1089503
REMARK                            x       y       z     vdW  Elec       q    Type
REMARK                         _______ _______ _______ _____ _____    ______ ____
ROOT
ATOM      1  C   LIG    1        0.103  -7.511 -21.108  0.00  0.00    +0.095 A 
ATOM      2  C   LIG    1       -0.959  -8.116 -21.833  0.00  0.00    -0.186 A 
ATOM      3  C   LIG    1       -1.249  -7.566 -23.104  0.00  0.00    -0.025 A 
ATOM      4  S   LIG    1       -2.598  -8.561 -23.689  0.00  0.00    +0.058 S 
ATOM      5  C   LIG    1       -2.745  -9.651 -22.283  0.00  0.00    -0.180 A 
ATOM      6  C   LIG    1       -0.549  -6.498 -23.622  0.00  0.00    -0.170 A 
ATOM      7  C   LIG    1        0.479  -5.934 -22.887  0.00  0.00    +0.317 A 
ATOM      8  O   LIG    1        1.180  -4.881 -23.383  0.00  0.00    -0.667 OA
ATOM      9  C   LIG    1       -1.763  -9.202 -21.447  0.00  0.00    -0.007 A 
ATOM     10 CL   LIG    1       -1.511  -9.970 -19.911  0.00  0.00    -0.060 Cl
ATOM     11  C   LIG    1        0.789  -6.459 -21.626  0.00  0.00    -0.006 A 
ENDROOT
BRANCH   5  12
ATOM     12  C   LIG    1       -3.683 -10.753 -22.078  0.00  0.00    +0.562 C 
ATOM     13  O   LIG    1       -3.802 -11.622 -22.933  0.00  0.00    -0.656 OA
ATOM     14  O   LIG    1       -4.351 -10.806 -21.053  0.00  0.00    -0.683 OA
ENDBRANCH   5  12
BRANCH   6  15
ATOM     15  N   LIG    1       -0.893  -5.959 -24.957  0.00  0.00    +0.072 N 
ATOM     16  O   LIG    1       -0.280  -6.325 -25.933  0.00  0.00    -0.175 OA
ATOM     17  O   LIG    1       -1.786  -5.153 -25.072  0.00  0.00    -0.174 OA
ENDBRANCH   6  15
BRANCH  11  18
ATOM     18  O   LIG    1        1.799  -5.903 -20.905  0.00  0.00    -0.482 OA
ATOM     19  H   LIG    1        1.509  -5.229 -20.274  0.00  0.00    +0.367 HD
ENDBRANCH  11  18
TORSDOF 3
ENDMDL
