MODEL 1
REMARK VINA RESULT:      -7.9      0.000      0.000
REMARK  Name = CHEMBL168451
REMARK                            x       y       z     vdW  Elec       q    Type
REMARK                         _______ _______ _______ _____ _____    ______ ____
ROOT
ATOM      1  C   LIG    1       -2.865 -10.516 -19.861  0.00  0.00    +0.565 C 
ATOM      2  N   LIG    1       -2.078  -9.423 -19.865  0.00  0.00    -0.719 N 
ATOM      3  H   LIG    1       -2.031  -8.854 -19.081  0.00  0.00    +0.399 HD
ATOM      4  O   LIG    1       -2.924 -11.228 -20.844  0.00  0.00    -0.521 OA
ENDROOT
BRANCH   2   5
ATOM      5  C   LIG    1       -1.292  -9.091 -21.057  0.00  0.00    +0.184 C 
ATOM      6  C   LIG    1       -0.260 -10.192 -21.309  0.00  0.00    +0.024 C 
ATOM      7  C   LIG    1        0.561  -9.847 -22.553  0.00  0.00    -0.009 C 
ATOM      8  C   LIG    1        1.280  -8.513 -22.335  0.00  0.00    +0.017 C 
ATOM      9  C   LIG    1        0.248  -7.412 -22.083  0.00  0.00    -0.004 C 
ATOM     10  C   LIG    1       -0.682  -7.299 -23.292  0.00  0.00    +0.017 C 
ATOM     11  C   LIG    1       -1.401  -8.632 -23.510  0.00  0.00    -0.009 C 
ATOM     12  C   LIG    1       -0.369  -9.733 -23.762  0.00  0.00    +0.019 C 
ATOM     13  C   LIG    1       -2.222  -8.978 -22.267  0.00  0.00    +0.024 C 
ATOM     14  C   LIG    1       -0.573  -7.759 -20.839  0.00  0.00    +0.023 C 
ENDBRANCH   2   5
BRANCH   1  16
ATOM     15  C   LIG    1       -3.513 -12.099 -18.050  0.00  0.00    +0.088 A 
ATOM     16  C   LIG    1       -3.657 -10.849 -18.661  0.00  0.00    -0.117 A 
ATOM     17  C   LIG    1       -4.553  -9.917 -18.132  0.00  0.00    +0.069 A 
ATOM     18  C   LIG    1       -5.292 -10.230 -17.010  0.00  0.00    -0.059 A 
ATOM     19 CL   LIG    1       -6.404  -9.070 -16.354  0.00  0.00    -0.040 Cl
ATOM     20  C   LIG    1       -5.147 -11.471 -16.403  0.00  0.00    +0.119 A 
ATOM     21  C   LIG    1       -4.255 -12.406 -16.927  0.00  0.00    +0.091 A 
BRANCH  20  22
ATOM     22  O   LIG    1       -5.876 -11.774 -15.298  0.00  0.00    -0.478 OA
ATOM     23  H   LIG    1       -6.130 -12.705 -15.237  0.00  0.00    +0.401 HD
ENDBRANCH  20  22
BRANCH  21  24
ATOM     24  O   LIG    1       -4.117 -13.620 -16.331  0.00  0.00    -0.482 OA
ATOM     25  H   LIG    1       -3.202 -13.857 -16.129  0.00  0.00    +0.400 HD
ENDBRANCH  21  24
ENDBRANCH   1  16
TORSDOF 4
ENDMDL
MODEL 2
REMARK VINA RESULT:      -7.9      0.012      1.598
REMARK  Name = CHEMBL168451
REMARK                            x       y       z     vdW  Elec       q    Type
REMARK                         _______ _______ _______ _____ _____    ______ ____
ROOT
ATOM      1  C   LIG    1       -2.873 -10.512 -19.864  0.00  0.00    +0.565 C 
ATOM      2  N   LIG    1       -2.076  -9.425 -19.863  0.00  0.00    -0.719 N 
ATOM      3  H   LIG    1       -2.021  -8.865 -19.073  0.00  0.00    +0.399 HD
ATOM      4  O   LIG    1       -2.943 -11.214 -20.854  0.00  0.00    -0.521 OA
ENDROOT
BRANCH   2   5
ATOM      5  C   LIG    1       -1.294  -9.090 -21.055  0.00  0.00    +0.184 C 
ATOM      6  C   LIG    1       -0.578  -7.756 -20.836  0.00  0.00    +0.024 C 
ATOM      7  C   LIG    1        0.240  -7.405 -22.081  0.00  0.00    -0.009 C 
ATOM      8  C   LIG    1       -0.694  -7.289 -23.288  0.00  0.00    +0.017 C 
ATOM      9  C   LIG    1       -1.411  -8.623 -23.507  0.00  0.00    -0.004 C 
ATOM     10  C   LIG    1       -0.377  -9.721 -23.765  0.00  0.00    +0.017 C 
ATOM     11  C   LIG    1        0.556  -9.836 -22.558  0.00  0.00    -0.009 C 
ATOM     12  C   LIG    1        1.273  -8.502 -22.339  0.00  0.00    +0.019 C 
ATOM     13  C   LIG    1       -0.260 -10.187 -21.313  0.00  0.00    +0.024 C 
ATOM     14  C   LIG    1       -2.227  -8.974 -22.262  0.00  0.00    +0.023 C 
ENDBRANCH   2   5
BRANCH   1  16
ATOM     15  C   LIG    1       -3.515 -12.102 -18.058  0.00  0.00    +0.088 A 
ATOM     16  C   LIG    1       -3.662 -10.850 -18.663  0.00  0.00    -0.117 A 
ATOM     17  C   LIG    1       -4.556  -9.920 -18.128  0.00  0.00    +0.069 A 
ATOM     18  C   LIG    1       -5.291 -10.237 -17.006  0.00  0.00    -0.059 A 
ATOM     19 CL   LIG    1       -6.402  -9.079 -16.342  0.00  0.00    -0.040 Cl
ATOM     20  C   LIG    1       -5.145 -11.480 -16.404  0.00  0.00    +0.119 A 
ATOM     21  C   LIG    1       -4.255 -12.413 -16.934  0.00  0.00    +0.091 A 
BRANCH  20  22
ATOM     22  O   LIG    1       -5.871 -11.788 -15.298  0.00  0.00    -0.478 OA
ATOM     23  H   LIG    1       -5.568 -12.581 -14.836  0.00  0.00    +0.401 HD
ENDBRANCH  20  22
BRANCH  21  24
ATOM     24  O   LIG    1       -4.115 -13.630 -16.343  0.00  0.00    -0.482 OA
ATOM     25  H   LIG    1       -4.829 -14.249 -16.545  0.00  0.00    +0.400 HD
ENDBRANCH  21  24
ENDBRANCH   1  16
TORSDOF 4
ENDMDL
MODEL 3
REMARK VINA RESULT:      -7.6      1.387      1.900
REMARK  Name = CHEMBL168451
REMARK                            x       y       z     vdW  Elec       q    Type
REMARK                         _______ _______ _______ _____ _____    ______ ____
ROOT
ATOM      1  C   LIG    1       -2.902 -10.238 -20.223  0.00  0.00    +0.565 C 
ATOM      2  N   LIG    1       -1.949  -9.287 -20.176  0.00  0.00    -0.719 N 
ATOM      3  H   LIG    1       -1.724  -8.867 -19.331  0.00  0.00    +0.399 HD
ATOM      4  O   LIG    1       -3.185 -10.763 -21.283  0.00  0.00    -0.521 OA
ENDROOT
BRANCH   2   5
ATOM      5  C   LIG    1       -1.255  -8.884 -21.401  0.00  0.00    +0.184 C 
ATOM      6  C   LIG    1       -0.320 -10.009 -21.850  0.00  0.00    +0.024 C 
ATOM      7  C   LIG    1        0.406  -9.590 -23.130  0.00  0.00    -0.009 C 
ATOM      8  C   LIG    1        1.224  -8.324 -22.861  0.00  0.00    +0.017 C 
ATOM      9  C   LIG    1        0.289  -7.199 -22.412  0.00  0.00    -0.004 C 
ATOM     10  C   LIG    1       -0.737  -6.919 -23.511  0.00  0.00    +0.017 C 
ATOM     11  C   LIG    1       -1.554  -8.184 -23.780  0.00  0.00    -0.009 C 
ATOM     12  C   LIG    1       -0.619  -9.309 -24.229  0.00  0.00    +0.019 C 
ATOM     13  C   LIG    1       -2.280  -8.605 -22.502  0.00  0.00    +0.024 C 
ATOM     14  C   LIG    1       -0.437  -7.619 -21.132  0.00  0.00    +0.023 C 
ENDBRANCH   2   5
BRANCH   1  16
ATOM     15  C   LIG    1       -4.314  -9.697 -18.245  0.00  0.00    +0.088 A 
ATOM     16  C   LIG    1       -3.602 -10.643 -18.989  0.00  0.00    -0.117 A 
ATOM     17  C   LIG    1       -3.557 -11.972 -18.561  0.00  0.00    +0.069 A 
ATOM     18  C   LIG    1       -4.213 -12.348 -17.408  0.00  0.00    -0.059 A 
ATOM     19 CL   LIG    1       -4.155 -14.000 -16.879  0.00  0.00    -0.040 Cl
ATOM     20  C   LIG    1       -4.921 -11.408 -16.670  0.00  0.00    +0.119 A 
ATOM     21  C   LIG    1       -4.970 -10.081 -17.091  0.00  0.00    +0.091 A 
BRANCH  20  22
ATOM     22  O   LIG    1       -5.566 -11.784 -15.535  0.00  0.00    -0.478 OA
ATOM     23  H   LIG    1       -5.997 -11.055 -15.068  0.00  0.00    +0.401 HD
ENDBRANCH  20  22
BRANCH  21  24
ATOM     24  O   LIG    1       -5.662  -9.163 -16.366  0.00  0.00    -0.482 OA
ATOM     25  H   LIG    1       -5.996  -8.420 -16.887  0.00  0.00    +0.400 HD
ENDBRANCH  21  24
ENDBRANCH   1  16
TORSDOF 4
ENDMDL
MODEL 4
REMARK VINA RESULT:      -7.6      1.392      2.453
REMARK  Name = CHEMBL168451
REMARK                            x       y       z     vdW  Elec       q    Type
REMARK                         _______ _______ _______ _____ _____    ______ ____
ROOT
ATOM      1  C   LIG    1       -2.890 -10.289 -20.235  0.00  0.00    +0.565 C 
ATOM      2  N   LIG    1       -1.997  -9.281 -20.201  0.00  0.00    -0.719 N 
ATOM      3  H   LIG    1       -1.816  -8.820 -19.367  0.00  0.00    +0.399 HD
ATOM      4  O   LIG    1       -3.116 -10.867 -21.280  0.00  0.00    -0.521 OA
ENDROOT
BRANCH   2   5
ATOM      5  C   LIG    1       -1.299  -8.880 -21.426  0.00  0.00    +0.184 C 
ATOM      6  C   LIG    1       -0.516  -7.591 -21.168  0.00  0.00    +0.024 C 
ATOM      7  C   LIG    1        0.213  -7.172 -22.446  0.00  0.00    -0.009 C 
ATOM      8  C   LIG    1       -0.809  -6.934 -23.561  0.00  0.00    +0.017 C 
ATOM      9  C   LIG    1       -1.592  -8.223 -23.819  0.00  0.00    -0.004 C 
ATOM     10  C   LIG    1       -0.625  -9.331 -24.241  0.00  0.00    +0.017 C 
ATOM     11  C   LIG    1        0.396  -9.569 -23.127  0.00  0.00    -0.009 C 
ATOM     12  C   LIG    1        1.179  -8.280 -22.869  0.00  0.00    +0.019 C 
ATOM     13  C   LIG    1       -0.332  -9.988 -21.849  0.00  0.00    +0.024 C 
ATOM     14  C   LIG    1       -2.320  -8.642 -22.540  0.00  0.00    +0.023 C 
ENDBRANCH   2   5
BRANCH   1  16
ATOM     15  C   LIG    1       -4.286  -9.740 -18.247  0.00  0.00    +0.088 A 
ATOM     16  C   LIG    1       -3.593 -10.693 -19.001  0.00  0.00    -0.117 A 
ATOM     17  C   LIG    1       -3.570 -12.025 -18.585  0.00  0.00    +0.069 A 
ATOM     18  C   LIG    1       -4.229 -12.400 -17.434  0.00  0.00    -0.059 A 
ATOM     19 CL   LIG    1       -4.199 -14.058 -16.919  0.00  0.00    -0.040 Cl
ATOM     20  C   LIG    1       -4.918 -11.455 -16.685  0.00  0.00    +0.119 A 
ATOM     21  C   LIG    1       -4.944 -10.122 -17.094  0.00  0.00    +0.091 A 
BRANCH  20  22
ATOM     22  O   LIG    1       -5.565 -11.829 -15.551  0.00  0.00    -0.478 OA
ATOM     23  H   LIG    1       -5.841 -11.089 -14.992  0.00  0.00    +0.401 HD
ENDBRANCH  20  22
BRANCH  21  24
ATOM     24  O   LIG    1       -5.617  -9.199 -16.358  0.00  0.00    -0.482 OA
ATOM     25  H   LIG    1       -6.579  -9.263 -16.432  0.00  0.00    +0.400 HD
ENDBRANCH  21  24
ENDBRANCH   1  16
TORSDOF 4
ENDMDL
MODEL 5
REMARK VINA RESULT:      -6.5      5.300      7.130
REMARK  Name = CHEMBL168451
REMARK                            x       y       z     vdW  Elec       q    Type
REMARK                         _______ _______ _______ _____ _____    ______ ____
ROOT
ATOM      1  C   LIG    1       -3.060 -15.070 -19.168  0.00  0.00    +0.565 C 
ATOM      2  N   LIG    1       -3.412 -15.449 -20.412  0.00  0.00    -0.719 N 
ATOM      3  H   LIG    1       -3.937 -14.855 -20.970  0.00  0.00    +0.399 HD
ATOM      4  O   LIG    1       -2.402 -15.815 -18.468  0.00  0.00    -0.521 OA
ENDROOT
BRANCH   2   5
ATOM      5  C   LIG    1       -3.001 -16.760 -20.921  0.00  0.00    +0.184 C 
ATOM      6  C   LIG    1       -3.796 -17.856 -20.208  0.00  0.00    +0.024 C 
ATOM      7  C   LIG    1       -3.367 -19.225 -20.740  0.00  0.00    -0.009 C 
ATOM      8  C   LIG    1       -1.872 -19.428 -20.479  0.00  0.00    +0.017 C 
ATOM      9  C   LIG    1       -1.077 -18.332 -21.192  0.00  0.00    -0.004 C 
ATOM     10  C   LIG    1       -1.347 -18.403 -22.696  0.00  0.00    +0.017 C 
ATOM     11  C   LIG    1       -2.841 -18.200 -22.956  0.00  0.00    -0.009 C 
ATOM     12  C   LIG    1       -3.636 -19.296 -22.243  0.00  0.00    +0.019 C 
ATOM     13  C   LIG    1       -3.271 -16.832 -22.425  0.00  0.00    +0.024 C 
ATOM     14  C   LIG    1       -1.507 -16.963 -20.661  0.00  0.00    +0.023 C 
ENDBRANCH   2   5
BRANCH   1  16
ATOM     15  C   LIG    1       -4.062 -13.643 -17.390  0.00  0.00    +0.088 A 
ATOM     16  C   LIG    1       -3.475 -13.750 -18.654  0.00  0.00    -0.117 A 
ATOM     17  C   LIG    1       -3.282 -12.605 -19.430  0.00  0.00    +0.069 A 
ATOM     18  C   LIG    1       -3.669 -11.372 -18.948  0.00  0.00    -0.059 A 
ATOM     19 CL   LIG    1       -3.428  -9.949 -19.913  0.00  0.00    -0.040 Cl
ATOM     20  C   LIG    1       -4.252 -11.266 -17.691  0.00  0.00    +0.119 A 
ATOM     21  C   LIG    1       -4.448 -12.405 -16.913  0.00  0.00    +0.091 A 
BRANCH  20  22
ATOM     22  O   LIG    1       -4.631 -10.049 -17.221  0.00  0.00    -0.478 OA
ATOM     23  H   LIG    1       -3.895  -9.447 -17.046  0.00  0.00    +0.401 HD
ENDBRANCH  20  22
BRANCH  21  24
ATOM     24  O   LIG    1       -5.019 -12.298 -15.684  0.00  0.00    -0.482 OA
ATOM     25  H   LIG    1       -5.127 -11.387 -15.378  0.00  0.00    +0.400 HD
ENDBRANCH  21  24
ENDBRANCH   1  16
TORSDOF 4
ENDMDL
MODEL 6
REMARK VINA RESULT:      -6.4      2.107      3.052
REMARK  Name = CHEMBL168451
REMARK                            x       y       z     vdW  Elec       q    Type
REMARK                         _______ _______ _______ _____ _____    ______ ____
ROOT
ATOM      1  C   LIG    1       -3.246 -10.913 -20.606  0.00  0.00    +0.565 C 
ATOM      2  N   LIG    1       -2.027 -10.889 -21.181  0.00  0.00    -0.719 N 
ATOM      3  H   LIG    1       -1.317 -11.452 -20.837  0.00  0.00    +0.399 HD
ATOM      4  O   LIG    1       -4.136 -10.206 -21.038  0.00  0.00    -0.521 OA
ENDROOT
BRANCH   2   5
ATOM      5  C   LIG    1       -1.776 -10.011 -22.327  0.00  0.00    +0.184 C 
ATOM      6  C   LIG    1       -2.997 -10.013 -23.248  0.00  0.00    +0.024 C 
ATOM      7  C   LIG    1       -2.735  -9.096 -24.445  0.00  0.00    -0.009 C 
ATOM      8  C   LIG    1       -1.514  -9.602 -25.217  0.00  0.00    +0.017 C 
ATOM      9  C   LIG    1       -0.292  -9.601 -24.296  0.00  0.00    -0.004 C 
ATOM     10  C   LIG    1       -0.029  -8.178 -23.800  0.00  0.00    +0.017 C 
ATOM     11  C   LIG    1       -1.249  -7.672 -23.029  0.00  0.00    -0.009 C 
ATOM     12  C   LIG    1       -2.471  -7.673 -23.950  0.00  0.00    +0.019 C 
ATOM     13  C   LIG    1       -1.512  -8.587 -21.832  0.00  0.00    +0.024 C 
ATOM     14  C   LIG    1       -0.555 -10.517 -23.098  0.00  0.00    +0.023 C 
ENDBRANCH   2   5
BRANCH   1  16
ATOM     15  C   LIG    1       -4.000 -11.264 -18.259  0.00  0.00    +0.088 A 
ATOM     16  C   LIG    1       -3.499 -11.796 -19.451  0.00  0.00    -0.117 A 
ATOM     17  C   LIG    1       -3.239 -13.165 -19.546  0.00  0.00    +0.069 A 
ATOM     18  C   LIG    1       -3.478 -13.989 -18.466  0.00  0.00    -0.059 A 
ATOM     19 CL   LIG    1       -3.155 -15.690 -18.587  0.00  0.00    -0.040 Cl
ATOM     20  C   LIG    1       -3.977 -13.460 -17.283  0.00  0.00    +0.119 A 
ATOM     21  C   LIG    1       -4.237 -12.095 -17.181  0.00  0.00    +0.091 A 
BRANCH  20  22
ATOM     22  O   LIG    1       -4.210 -14.276 -16.222  0.00  0.00    -0.478 OA
ATOM     23  H   LIG    1       -5.058 -14.740 -16.261  0.00  0.00    +0.401 HD
ENDBRANCH  20  22
BRANCH  21  24
ATOM     24  O   LIG    1       -4.724 -11.580 -16.021  0.00  0.00    -0.482 OA
ATOM     25  H   LIG    1       -4.392 -12.019 -15.226  0.00  0.00    +0.400 HD
ENDBRANCH  21  24
ENDBRANCH   1  16
TORSDOF 4
ENDMDL
MODEL 7
REMARK VINA RESULT:      -6.0      3.915      7.059
REMARK  Name = CHEMBL168451
REMARK                            x       y       z     vdW  Elec       q    Type
REMARK                         _______ _______ _______ _____ _____    ______ ____
ROOT
ATOM      1  C   LIG    1       -1.508  -9.445 -21.342  0.00  0.00    +0.565 C 
ATOM      2  N   LIG    1       -2.205 -10.200 -22.213  0.00  0.00    -0.719 N 
ATOM      3  H   LIG    1       -2.260  -9.940 -23.146  0.00  0.00    +0.399 HD
ATOM      4  O   LIG    1       -1.440  -9.772 -20.173  0.00  0.00    -0.521 OA
ENDROOT
BRANCH   2   5
ATOM      5  C   LIG    1       -2.880 -11.416 -21.752  0.00  0.00    +0.184 C 
ATOM      6  C   LIG    1       -3.729 -11.091 -20.520  0.00  0.00    +0.024 C 
ATOM      7  C   LIG    1       -4.434 -12.360 -20.038  0.00  0.00    -0.009 C 
ATOM      8  C   LIG    1       -3.389 -13.417 -19.672  0.00  0.00    +0.017 C 
ATOM      9  C   LIG    1       -2.540 -13.742 -20.904  0.00  0.00    -0.004 C 
ATOM     10  C   LIG    1       -3.441 -14.279 -22.017  0.00  0.00    +0.017 C 
ATOM     11  C   LIG    1       -4.486 -13.222 -22.382  0.00  0.00    -0.009 C 
ATOM     12  C   LIG    1       -5.335 -12.898 -21.151  0.00  0.00    +0.019 C 
ATOM     13  C   LIG    1       -3.782 -11.954 -22.864  0.00  0.00    +0.024 C 
ATOM     14  C   LIG    1       -1.836 -12.472 -21.386  0.00  0.00    +0.023 C 
ENDBRANCH   2   5
BRANCH   1  16
ATOM     15  C   LIG    1        0.244  -7.695 -21.080  0.00  0.00    +0.088 A 
ATOM     16  C   LIG    1       -0.829  -8.220 -21.807  0.00  0.00    -0.117 A 
ATOM     17  C   LIG    1       -1.256  -7.582 -22.973  0.00  0.00    +0.069 A 
ATOM     18  C   LIG    1       -0.619  -6.438 -23.407  0.00  0.00    -0.059 A 
ATOM     19 CL   LIG    1       -1.152  -5.647 -24.858  0.00  0.00    -0.040 Cl
ATOM     20  C   LIG    1        0.448  -5.917 -22.686  0.00  0.00    +0.119 A 
ATOM     21  C   LIG    1        0.878  -6.549 -21.520  0.00  0.00    +0.091 A 
BRANCH  20  22
ATOM     22  O   LIG    1        1.072  -4.791 -23.117  0.00  0.00    -0.478 OA
ATOM     23  H   LIG    1        1.667  -4.396 -22.465  0.00  0.00    +0.401 HD
ENDBRANCH  20  22
BRANCH  21  24
ATOM     24  O   LIG    1        1.922  -6.036 -20.815  0.00  0.00    -0.482 OA
ATOM     25  H   LIG    1        2.583  -5.589 -21.361  0.00  0.00    +0.400 HD
ENDBRANCH  21  24
ENDBRANCH   1  16
TORSDOF 4
ENDMDL
MODEL 8
REMARK VINA RESULT:      -5.8     12.080     14.221
REMARK  Name = CHEMBL168451
REMARK                            x       y       z     vdW  Elec       q    Type
REMARK                         _______ _______ _______ _____ _____    ______ ____
ROOT
ATOM      1  C   LIG    1        7.987  -1.096 -18.256  0.00  0.00    +0.565 C 
ATOM      2  N   LIG    1        7.083  -0.240 -18.771  0.00  0.00    -0.719 N 
ATOM      3  H   LIG    1        6.142  -0.472 -18.776  0.00  0.00    +0.399 HD
ATOM      4  O   LIG    1        9.167  -0.804 -18.249  0.00  0.00    -0.521 OA
ENDROOT
BRANCH   2   5
ATOM      5  C   LIG    1        7.524   1.044 -19.323  0.00  0.00    +0.184 C 
ATOM      6  C   LIG    1        8.203   1.865 -18.225  0.00  0.00    +0.024 C 
ATOM      7  C   LIG    1        8.663   3.206 -18.801  0.00  0.00    -0.009 C 
ATOM      8  C   LIG    1        7.452   3.974 -19.336  0.00  0.00    +0.017 C 
ATOM      9  C   LIG    1        6.772   3.153 -20.434  0.00  0.00    -0.004 C 
ATOM     10  C   LIG    1        7.763   2.905 -21.572  0.00  0.00    +0.017 C 
ATOM     11  C   LIG    1        8.974   2.138 -21.038  0.00  0.00    -0.009 C 
ATOM     12  C   LIG    1        9.653   2.959 -19.940  0.00  0.00    +0.019 C 
ATOM     13  C   LIG    1        8.515   0.798 -20.462  0.00  0.00    +0.024 C 
ATOM     14  C   LIG    1        6.313   1.812 -19.857  0.00  0.00    +0.023 C 
ENDBRANCH   2   5
BRANCH   1  16
ATOM     15  C   LIG    1        7.115  -2.472 -16.372  0.00  0.00    +0.088 A 
ATOM     16  C   LIG    1        7.544  -2.390 -17.700  0.00  0.00    -0.117 A 
ATOM     17  C   LIG    1        7.550  -3.535 -18.500  0.00  0.00    +0.069 A 
ATOM     18  C   LIG    1        7.134  -4.742 -17.980  0.00  0.00    -0.059 A 
ATOM     19 CL   LIG    1        7.143  -6.164 -18.977  0.00  0.00    -0.040 Cl
ATOM     20  C   LIG    1        6.708  -4.824 -16.661  0.00  0.00    +0.119 A 
ATOM     21  C   LIG    1        6.700  -3.685 -15.857  0.00  0.00    +0.091 A 
BRANCH  20  22
ATOM     22  O   LIG    1        6.299  -6.015 -16.153  0.00  0.00    -0.478 OA
ATOM     23  H   LIG    1        5.402  -6.267 -16.412  0.00  0.00    +0.401 HD
ENDBRANCH  20  22
BRANCH  21  24
ATOM     24  O   LIG    1        6.283  -3.768 -14.565  0.00  0.00    -0.482 OA
ATOM     25  H   LIG    1        5.923  -4.632 -14.323  0.00  0.00    +0.400 HD
ENDBRANCH  21  24
ENDBRANCH   1  16
TORSDOF 4
ENDMDL
MODEL 9
REMARK VINA RESULT:      -5.7      7.867     10.016
REMARK  Name = CHEMBL168451
REMARK                            x       y       z     vdW  Elec       q    Type
REMARK                         _______ _______ _______ _____ _____    ______ ____
ROOT
ATOM      1  C   LIG    1        5.947  -7.164 -18.889  0.00  0.00    +0.565 C 
ATOM      2  N   LIG    1        4.791  -7.053 -19.572  0.00  0.00    -0.719 N 
ATOM      3  H   LIG    1        4.256  -6.248 -19.494  0.00  0.00    +0.399 HD
ATOM      4  O   LIG    1        6.617  -8.174 -18.986  0.00  0.00    -0.521 OA
ENDROOT
BRANCH   2   5
ATOM      5  C   LIG    1        4.341  -8.150 -20.432  0.00  0.00    +0.184 C 
ATOM      6  C   LIG    1        5.372  -8.385 -21.539  0.00  0.00    +0.024 C 
ATOM      7  C   LIG    1        4.902  -9.531 -22.438  0.00  0.00    -0.009 C 
ATOM      8  C   LIG    1        3.554  -9.168 -23.065  0.00  0.00    +0.017 C 
ATOM      9  C   LIG    1        2.524  -8.933 -21.958  0.00  0.00    -0.004 C 
ATOM     10  C   LIG    1        2.372 -10.206 -21.124  0.00  0.00    +0.017 C 
ATOM     11  C   LIG    1        3.720 -10.569 -20.497  0.00  0.00    -0.009 C 
ATOM     12  C   LIG    1        4.750 -10.804 -21.604  0.00  0.00    +0.019 C 
ATOM     13  C   LIG    1        4.190  -9.424 -19.599  0.00  0.00    +0.024 C 
ATOM     14  C   LIG    1        2.994  -7.787 -21.059  0.00  0.00    +0.023 C 
ENDBRANCH   2   5
BRANCH   1  16
ATOM     15  C   LIG    1        6.377  -6.205 -16.631  0.00  0.00    +0.088 A 
ATOM     16  C   LIG    1        6.400  -6.059 -18.021  0.00  0.00    -0.117 A 
ATOM     17  C   LIG    1        6.852  -4.865 -18.586  0.00  0.00    +0.069 A 
ATOM     18  C   LIG    1        7.276  -3.834 -17.774  0.00  0.00    -0.059 A 
ATOM     19 CL   LIG    1        7.839  -2.351 -18.479  0.00  0.00    -0.040 Cl
ATOM     20  C   LIG    1        7.254  -3.980 -16.393  0.00  0.00    +0.119 A 
ATOM     21  C   LIG    1        6.803  -5.169 -15.823  0.00  0.00    +0.091 A 
BRANCH  20  22
ATOM     22  O   LIG    1        7.673  -2.962 -15.597  0.00  0.00    -0.478 OA
ATOM     23  H   LIG    1        7.137  -2.838 -14.802  0.00  0.00    +0.401 HD
ENDBRANCH  20  22
BRANCH  21  24
ATOM     24  O   LIG    1        6.781  -5.309 -14.470  0.00  0.00    -0.482 OA
ATOM     25  H   LIG    1        7.655  -5.273 -14.057  0.00  0.00    +0.400 HD
ENDBRANCH  21  24
ENDBRANCH   1  16
TORSDOF 4
ENDMDL
