MODEL 1
REMARK VINA RESULT:      -6.9      0.000      0.000
REMARK  Name = CHEMBL1244
REMARK                            x       y       z     vdW  Elec       q    Type
REMARK                         _______ _______ _______ _____ _____    ______ ____
ROOT
ATOM      1  C   LIG    1       -6.829  -1.468 -18.541  0.00  0.00    +0.184 A 
ATOM      2  C   LIG    1       -6.276  -2.274 -19.544  0.00  0.00    -0.311 A 
ATOM      3  C   LIG    1       -5.140  -1.842 -20.238  0.00  0.00    +0.109 A 
ATOM      4  C   LIG    1       -4.570  -0.623 -19.931  0.00  0.00    -0.029 A 
ATOM      5  C   LIG    1       -5.126   0.175 -18.931  0.00  0.00    +0.309 A 
ATOM      6  O   LIG    1       -4.563   1.373 -18.631  0.00  0.00    -0.606 OA
ATOM      7  C   LIG    1       -6.253  -0.253 -18.241  0.00  0.00    -0.203 A 
ENDROOT
BRANCH   7   8
ATOM      8  N   LIG    1       -6.838   0.599 -17.181  0.00  0.00    +0.070 N 
ATOM      9  O   LIG    1       -7.631   1.464 -17.470  0.00  0.00    -0.156 OA
ATOM     10  O   LIG    1       -6.521   0.430 -16.027  0.00  0.00    -0.249 OA
ENDBRANCH   7   8
BRANCH   2  11
ATOM     11  C   LIG    1       -6.887  -3.571 -19.865  0.00  0.00    +0.489 C 
ATOM     12  O   LIG    1       -6.639  -4.544 -19.184  0.00  0.00    -0.495 OA
ENDBRANCH   2  11
BRANCH   4  13
ATOM     13  O   LIG    1       -3.466  -0.200 -20.604  0.00  0.00    -0.480 OA
ATOM     14  H   LIG    1       -3.636   0.522 -21.224  0.00  0.00    +0.369 HD
ENDBRANCH   4  13
TORSDOF 3
ENDMDL
MODEL 2
REMARK VINA RESULT:      -6.7      1.507      3.229
REMARK  Name = CHEMBL1244
REMARK                            x       y       z     vdW  Elec       q    Type
REMARK                         _______ _______ _______ _____ _____    ______ ____
ROOT
ATOM      1  C   LIG    1       -5.651  -2.285 -19.834  0.00  0.00    +0.184 A 
ATOM      2  C   LIG    1       -6.957  -2.554 -19.406  0.00  0.00    -0.311 A 
ATOM      3  C   LIG    1       -7.625  -1.635 -18.588  0.00  0.00    +0.109 A 
ATOM      4  C   LIG    1       -6.994  -0.469 -18.208  0.00  0.00    -0.029 A 
ATOM      5  C   LIG    1       -5.692  -0.207 -18.637  0.00  0.00    +0.309 A 
ATOM      6  O   LIG    1       -5.074   0.941 -18.262  0.00  0.00    -0.606 OA
ATOM      7  C   LIG    1       -5.029  -1.118 -19.449  0.00  0.00    -0.203 A 
ENDROOT
BRANCH   7   8
ATOM      8  N   LIG    1       -3.648  -0.834 -19.901  0.00  0.00    +0.070 N 
ATOM      9  O   LIG    1       -3.461  -0.127 -20.863  0.00  0.00    -0.156 OA
ATOM     10  O   LIG    1       -2.708  -1.309 -19.307  0.00  0.00    -0.249 OA
ENDBRANCH   7   8
BRANCH   2  11
ATOM     11  C   LIG    1       -7.624  -3.797 -19.816  0.00  0.00    +0.489 C 
ATOM     12  O   LIG    1       -7.378  -4.835 -19.240  0.00  0.00    -0.495 OA
ENDBRANCH   2  11
BRANCH   4  13
ATOM     13  O   LIG    1       -7.640   0.427 -17.413  0.00  0.00    -0.480 OA
ATOM     14  H   LIG    1       -8.366   0.890 -17.853  0.00  0.00    +0.369 HD
ENDBRANCH   4  13
TORSDOF 3
ENDMDL
MODEL 3
REMARK VINA RESULT:      -5.4     10.531     12.211
REMARK  Name = CHEMBL1244
REMARK                            x       y       z     vdW  Elec       q    Type
REMARK                         _______ _______ _______ _____ _____    ______ ____
ROOT
ATOM      1  C   LIG    1       -3.214 -13.026 -19.318  0.00  0.00    +0.184 A 
ATOM      2  C   LIG    1       -3.469 -14.060 -18.409  0.00  0.00    -0.311 A 
ATOM      3  C   LIG    1       -4.079 -13.775 -17.182  0.00  0.00    +0.109 A 
ATOM      4  C   LIG    1       -4.427 -12.476 -16.874  0.00  0.00    -0.029 A 
ATOM      5  C   LIG    1       -4.170 -11.450 -17.783  0.00  0.00    +0.309 A 
ATOM      6  O   LIG    1       -4.513 -10.173 -17.478  0.00  0.00    -0.606 OA
ATOM      7  C   LIG    1       -3.564 -11.732 -19.001  0.00  0.00    -0.203 A 
ENDROOT
BRANCH   7   8
ATOM      8  N   LIG    1       -3.295 -10.638 -19.962  0.00  0.00    +0.070 N 
ATOM      9  O   LIG    1       -4.046 -10.450 -20.889  0.00  0.00    -0.156 OA
ATOM     10  O   LIG    1       -2.323  -9.934 -19.818  0.00  0.00    -0.249 OA
ENDBRANCH   7   8
BRANCH   2  11
ATOM     11  C   LIG    1       -3.098 -15.441 -18.744  0.00  0.00    +0.489 C 
ATOM     12  O   LIG    1       -1.957 -15.819 -18.581  0.00  0.00    -0.495 OA
ENDBRANCH   2  11
BRANCH   4  13
ATOM     13  O   LIG    1       -5.020 -12.195 -15.682  0.00  0.00    -0.480 OA
ATOM     14  H   LIG    1       -4.742 -12.773 -14.959  0.00  0.00    +0.369 HD
ENDBRANCH   4  13
TORSDOF 3
ENDMDL
MODEL 4
REMARK VINA RESULT:      -5.2      9.081     10.834
REMARK  Name = CHEMBL1244
REMARK                            x       y       z     vdW  Elec       q    Type
REMARK                         _______ _______ _______ _____ _____    ______ ____
ROOT
ATOM      1  C   LIG    1       -4.153 -10.511 -18.840  0.00  0.00    +0.184 A 
ATOM      2  C   LIG    1       -3.547 -11.710 -19.235  0.00  0.00    -0.311 A 
ATOM      3  C   LIG    1       -3.585 -12.823 -18.386  0.00  0.00    +0.109 A 
ATOM      4  C   LIG    1       -4.219 -12.732 -17.164  0.00  0.00    -0.029 A 
ATOM      5  C   LIG    1       -4.820 -11.535 -16.776  0.00  0.00    +0.309 A 
ATOM      6  O   LIG    1       -5.443 -11.449 -15.574  0.00  0.00    -0.606 OA
ATOM      7  C   LIG    1       -4.783 -10.430 -17.618  0.00  0.00    -0.203 A 
ENDROOT
BRANCH   7   8
ATOM      8  N   LIG    1       -5.424  -9.163 -17.201  0.00  0.00    +0.070 N 
ATOM      9  O   LIG    1       -6.516  -9.179 -16.684  0.00  0.00    -0.156 OA
ATOM     10  O   LIG    1       -4.854  -8.111 -17.377  0.00  0.00    -0.249 OA
ENDBRANCH   7   8
BRANCH   2  11
ATOM     11  C   LIG    1       -2.875 -11.800 -20.538  0.00  0.00    +0.489 C 
ATOM     12  O   LIG    1       -2.753 -10.810 -21.228  0.00  0.00    -0.495 OA
ENDBRANCH   2  11
BRANCH   4  13
ATOM     13  O   LIG    1       -4.257 -13.812 -16.336  0.00  0.00    -0.480 OA
ATOM     14  H   LIG    1       -3.432 -14.315 -16.309  0.00  0.00    +0.369 HD
ENDBRANCH   4  13
TORSDOF 3
ENDMDL
MODEL 5
REMARK VINA RESULT:      -5.1      7.803     10.665
REMARK  Name = CHEMBL1244
REMARK                            x       y       z     vdW  Elec       q    Type
REMARK                         _______ _______ _______ _____ _____    ______ ____
ROOT
ATOM      1  C   LIG    1       -4.747  -9.407 -18.327  0.00  0.00    +0.184 A 
ATOM      2  C   LIG    1       -5.657  -8.862 -17.413  0.00  0.00    -0.311 A 
ATOM      3  C   LIG    1       -6.011  -9.584 -16.268  0.00  0.00    +0.109 A 
ATOM      4  C   LIG    1       -5.459 -10.830 -16.044  0.00  0.00    -0.029 A 
ATOM      5  C   LIG    1       -4.553 -11.366 -16.958  0.00  0.00    +0.309 A 
ATOM      6  O   LIG    1       -4.012 -12.591 -16.736  0.00  0.00    -0.606 OA
ATOM      7  C   LIG    1       -4.201 -10.650 -18.096  0.00  0.00    -0.203 A 
ENDROOT
BRANCH   7   8
ATOM      8  N   LIG    1       -3.238 -11.226 -19.062  0.00  0.00    +0.070 N 
ATOM      9  O   LIG    1       -2.185 -10.671 -19.268  0.00  0.00    -0.156 OA
ATOM     10  O   LIG    1       -3.507 -12.251 -19.644  0.00  0.00    -0.249 OA
ENDBRANCH   7   8
BRANCH   2  11
ATOM     11  C   LIG    1       -6.239  -7.536 -17.657  0.00  0.00    +0.489 C 
ATOM     12  O   LIG    1       -7.443  -7.392 -17.659  0.00  0.00    -0.495 OA
ENDBRANCH   2  11
BRANCH   4  13
ATOM     13  O   LIG    1       -5.800 -11.534 -14.931  0.00  0.00    -0.480 OA
ATOM     14  H   LIG    1       -5.570 -12.472 -14.974  0.00  0.00    +0.369 HD
ENDBRANCH   4  13
TORSDOF 3
ENDMDL
MODEL 6
REMARK VINA RESULT:      -4.9      9.091     11.945
REMARK  Name = CHEMBL1244
REMARK                            x       y       z     vdW  Elec       q    Type
REMARK                         _______ _______ _______ _____ _____    ______ ____
ROOT
ATOM      1  C   LIG    1       -4.229 -10.632 -18.887  0.00  0.00    +0.184 A 
ATOM      2  C   LIG    1       -4.738 -10.554 -17.585  0.00  0.00    -0.311 A 
ATOM      3  C   LIG    1       -4.702 -11.680 -16.754  0.00  0.00    +0.109 A 
ATOM      4  C   LIG    1       -4.164 -12.861 -17.222  0.00  0.00    -0.029 A 
ATOM      5  C   LIG    1       -3.658 -12.932 -18.520  0.00  0.00    +0.309 A 
ATOM      6  O   LIG    1       -3.129 -14.095 -18.977  0.00  0.00    -0.606 OA
ATOM      7  C   LIG    1       -3.693 -11.815 -19.345  0.00  0.00    -0.203 A 
ENDROOT
BRANCH   7   8
ATOM      8  N   LIG    1       -3.154 -11.898 -20.722  0.00  0.00    +0.070 N 
ATOM      9  O   LIG    1       -2.011 -11.577 -20.943  0.00  0.00    -0.156 OA
ATOM     10  O   LIG    1       -3.859 -12.287 -21.624  0.00  0.00    -0.249 OA
ENDBRANCH   7   8
BRANCH   2  11
ATOM     11  C   LIG    1       -5.309  -9.293 -17.093  0.00  0.00    +0.489 C 
ATOM     12  O   LIG    1       -4.879  -8.233 -17.498  0.00  0.00    -0.495 OA
ENDBRANCH   2  11
BRANCH   4  13
ATOM     13  O   LIG    1       -4.126 -13.957 -16.417  0.00  0.00    -0.480 OA
ATOM     14  H   LIG    1       -3.424 -13.934 -15.753  0.00  0.00    +0.369 HD
ENDBRANCH   4  13
TORSDOF 3
ENDMDL
MODEL 7
REMARK VINA RESULT:      -4.5     10.377     13.220
REMARK  Name = CHEMBL1244
REMARK                            x       y       z     vdW  Elec       q    Type
REMARK                         _______ _______ _______ _____ _____    ______ ____
ROOT
ATOM      1  C   LIG    1       -3.173 -12.672 -19.709  0.00  0.00    +0.184 A 
ATOM      2  C   LIG    1       -3.554 -11.412 -19.231  0.00  0.00    -0.311 A 
ATOM      3  C   LIG    1       -4.127 -11.292 -17.960  0.00  0.00    +0.109 A 
ATOM      4  C   LIG    1       -4.314 -12.417 -17.183  0.00  0.00    -0.029 A 
ATOM      5  C   LIG    1       -3.933 -13.670 -17.665  0.00  0.00    +0.309 A 
ATOM      6  O   LIG    1       -4.118 -14.774 -16.899  0.00  0.00    -0.606 OA
ATOM      7  C   LIG    1       -3.364 -13.789 -18.927  0.00  0.00    -0.203 A 
ENDROOT
BRANCH   7   8
ATOM      8  N   LIG    1       -2.962 -15.121 -19.432  0.00  0.00    +0.070 N 
ATOM      9  O   LIG    1       -2.013 -15.690 -18.946  0.00  0.00    -0.156 OA
ATOM     10  O   LIG    1       -3.583 -15.640 -20.330  0.00  0.00    -0.249 OA
ENDBRANCH   7   8
BRANCH   2  11
ATOM     11  C   LIG    1       -3.350 -10.218 -20.063  0.00  0.00    +0.489 C 
ATOM     12  O   LIG    1       -2.545  -9.375 -19.728  0.00  0.00    -0.495 OA
ENDBRANCH   2  11
BRANCH   4  13
ATOM     13  O   LIG    1       -4.871 -12.305 -15.947  0.00  0.00    -0.480 OA
ATOM     14  H   LIG    1       -5.091 -11.398 -15.696  0.00  0.00    +0.369 HD
ENDBRANCH   4  13
TORSDOF 3
ENDMDL
MODEL 8
REMARK VINA RESULT:      -4.5     13.530     14.331
REMARK  Name = CHEMBL1244
REMARK                            x       y       z     vdW  Elec       q    Type
REMARK                         _______ _______ _______ _____ _____    ______ ____
ROOT
ATOM      1  C   LIG    1        7.532  -3.675 -18.565  0.00  0.00    +0.184 A 
ATOM      2  C   LIG    1        7.513  -2.483 -17.830  0.00  0.00    -0.311 A 
ATOM      3  C   LIG    1        7.135  -2.501 -16.482  0.00  0.00    +0.109 A 
ATOM      4  C   LIG    1        6.782  -3.694 -15.884  0.00  0.00    -0.029 A 
ATOM      5  C   LIG    1        6.803  -4.877 -16.622  0.00  0.00    +0.309 A 
ATOM      6  O   LIG    1        6.456  -6.049 -16.031  0.00  0.00    -0.606 OA
ATOM      7  C   LIG    1        7.178  -4.861 -17.959  0.00  0.00    -0.203 A 
ENDROOT
BRANCH   7   8
ATOM      8  N   LIG    1        7.198  -6.121 -18.735  0.00  0.00    +0.070 N 
ATOM      9  O   LIG    1        6.210  -6.478 -19.332  0.00  0.00    -0.156 OA
ATOM     10  O   LIG    1        8.203  -6.792 -18.772  0.00  0.00    -0.249 OA
ENDBRANCH   7   8
BRANCH   2  11
ATOM     11  C   LIG    1        7.891  -1.218 -18.473  0.00  0.00    +0.489 C 
ATOM     12  O   LIG    1        8.040  -0.217 -17.803  0.00  0.00    -0.495 OA
ENDBRANCH   2  11
BRANCH   4  13
ATOM     13  O   LIG    1        6.414  -3.714 -14.574  0.00  0.00    -0.480 OA
ATOM     14  H   LIG    1        5.469  -3.573 -14.430  0.00  0.00    +0.369 HD
ENDBRANCH   4  13
TORSDOF 3
ENDMDL
MODEL 9
REMARK VINA RESULT:      -4.5     13.508     13.964
REMARK  Name = CHEMBL1244
REMARK                            x       y       z     vdW  Elec       q    Type
REMARK                         _______ _______ _______ _____ _____    ______ ____
ROOT
ATOM      1  C   LIG    1        7.333  -2.319 -16.663  0.00  0.00    +0.184 A 
ATOM      2  C   LIG    1        6.976  -3.650 -16.413  0.00  0.00    -0.311 A 
ATOM      3  C   LIG    1        7.033  -4.592 -17.446  0.00  0.00    +0.109 A 
ATOM      4  C   LIG    1        7.443  -4.206 -18.706  0.00  0.00    -0.029 A 
ATOM      5  C   LIG    1        7.798  -2.878 -18.948  0.00  0.00    +0.309 A 
ATOM      6  O   LIG    1        8.200  -2.501 -20.188  0.00  0.00    -0.606 OA
ATOM      7  C   LIG    1        7.741  -1.942 -17.923  0.00  0.00    -0.203 A 
ENDROOT
BRANCH   7   8
ATOM      8  N   LIG    1        8.119  -0.536 -18.187  0.00  0.00    +0.070 N 
ATOM      9  O   LIG    1        9.233  -0.150 -17.922  0.00  0.00    -0.156 OA
ATOM     10  O   LIG    1        7.314   0.227 -18.668  0.00  0.00    -0.249 OA
ENDBRANCH   7   8
BRANCH   2  11
ATOM     11  C   LIG    1        6.542  -4.055 -15.069  0.00  0.00    +0.489 C 
ATOM     12  O   LIG    1        6.902  -5.118 -14.610  0.00  0.00    -0.495 OA
ENDBRANCH   2  11
BRANCH   4  13
ATOM     13  O   LIG    1        7.500  -5.119 -19.712  0.00  0.00    -0.480 OA
ATOM     14  H   LIG    1        6.714  -5.678 -19.781  0.00  0.00    +0.369 HD
ENDBRANCH   4  13
TORSDOF 3
ENDMDL
