MODEL 1
REMARK VINA RESULT:      -6.8      0.000      0.000
REMARK  Name = CHEMBL1089538
REMARK                            x       y       z     vdW  Elec       q    Type
REMARK                         _______ _______ _______ _____ _____    ______ ____
ROOT
ATOM      1  C   LIG    1       -2.927 -11.326 -21.316  0.00  0.00    -0.177 A 
ATOM      2  C   LIG    1       -2.912 -12.458 -20.557  0.00  0.00    +0.028 A 
ATOM      3 CL   LIG    1       -2.204 -13.915 -21.181  0.00  0.00    +0.005 Cl
ATOM      4  C   LIG    1       -3.470 -12.443 -19.266  0.00  0.00    -0.084 A 
ATOM      5  C   LIG    1       -3.550 -13.510 -18.333  0.00  0.00    +0.135 A 
ATOM      6  C   LIG    1       -4.129 -13.330 -17.116  0.00  0.00    +0.095 A 
ATOM      7  C   LIG    1       -4.664 -12.094 -16.738  0.00  0.00    +0.192 A 
ATOM      8  C   LIG    1       -4.605 -11.031 -17.621  0.00  0.00    -0.013 A 
ATOM      9  C   LIG    1       -4.020 -11.204 -18.857  0.00  0.00    -0.091 A 
ATOM     10  S   LIG    1       -3.733 -10.142 -20.251  0.00  0.00    +0.220 S 
ENDROOT
BRANCH   8  11
ATOM     11  N   LIG    1       -5.167  -9.714 -17.242  0.00  0.00    +0.023 N 
ATOM     12  O   LIG    1       -6.203  -9.655 -16.624  0.00  0.00    -0.109 OA
ATOM     13  O   LIG    1       -4.587  -8.699 -17.550  0.00  0.00    -0.125 OA
ENDBRANCH   8  11
BRANCH   1  14
ATOM     14  C   LIG    1       -2.404 -11.128 -22.670  0.00  0.00    +0.548 C 
ATOM     15  O   LIG    1       -2.933 -11.685 -23.613  0.00  0.00    -0.447 OA
BRANCH  14  16
ATOM     16  O   LIG    1       -1.337 -10.329 -22.871  0.00  0.00    -0.342 OA
BRANCH  16  17
ATOM     17  C   LIG    1       -1.450  -8.973 -22.435  0.00  0.00    +0.398 C 
ATOM     18  C   LIG    1       -2.227  -8.165 -23.476  0.00  0.00    +0.090 C 
BRANCH  17  19
ATOM     19  O   LIG    1       -0.145  -8.414 -22.275  0.00  0.00    -0.350 OA
BRANCH  19  20
ATOM     20  C   LIG    1        0.232  -8.092 -21.028  0.00  0.00    +0.462 C 
ATOM     21  O   LIG    1       -0.602  -7.914 -20.171  0.00  0.00    -0.483 OA
BRANCH  20  23
ATOM     22  C   LIG    1        2.473  -9.112 -21.324  0.00  0.00    +0.058 C 
ATOM     23  C   LIG    1        1.696  -7.954 -20.695  0.00  0.00    +0.024 C 
ATOM     24  C   LIG    1        2.221  -6.627 -21.247  0.00  0.00    +0.064 C 
ENDBRANCH  20  23
ENDBRANCH  19  20
ENDBRANCH  17  19
ENDBRANCH  16  17
ENDBRANCH  14  16
ENDBRANCH   1  14
BRANCH   6  25
ATOM     25  O   LIG    1       -4.188 -14.375 -16.246  0.00  0.00    -0.468 OA
ATOM     26  H   LIG    1       -3.388 -14.919 -16.230  0.00  0.00    +0.401 HD
ENDBRANCH   6  25
BRANCH   7  27
ATOM     27  O   LIG    1       -5.237 -11.940 -15.515  0.00  0.00    -0.467 OA
ATOM     28  H   LIG    1       -4.611 -11.723 -14.812  0.00  0.00    +0.412 HD
ENDBRANCH   7  27
TORSDOF 9
ENDMDL
MODEL 2
REMARK VINA RESULT:      -6.6      6.981     10.942
REMARK  Name = CHEMBL1089538
REMARK                            x       y       z     vdW  Elec       q    Type
REMARK                         _______ _______ _______ _____ _____    ______ ____
ROOT
ATOM      1  C   LIG    1        6.060  -7.468 -19.182  0.00  0.00    -0.177 A 
ATOM      2  C   LIG    1        6.704  -6.427 -19.779  0.00  0.00    +0.028 A 
ATOM      3 CL   LIG    1        7.078  -6.491 -21.473  0.00  0.00    +0.005 Cl
ATOM      4  C   LIG    1        7.064  -5.298 -19.021  0.00  0.00    -0.084 A 
ATOM      5  C   LIG    1        7.733  -4.125 -19.458  0.00  0.00    +0.135 A 
ATOM      6  C   LIG    1        8.011  -3.116 -18.590  0.00  0.00    +0.095 A 
ATOM      7  C   LIG    1        7.650  -3.195 -17.240  0.00  0.00    +0.192 A 
ATOM      8  C   LIG    1        6.997  -4.323 -16.777  0.00  0.00    -0.013 A 
ATOM      9  C   LIG    1        6.711  -5.350 -17.651  0.00  0.00    -0.091 A 
ATOM     10  S   LIG    1        5.907  -6.925 -17.489  0.00  0.00    +0.220 S 
ENDROOT
BRANCH   8  11
ATOM     11  N   LIG    1        6.607  -4.426 -15.353  0.00  0.00    +0.023 N 
ATOM     12  O   LIG    1        7.012  -5.345 -14.681  0.00  0.00    -0.109 OA
ATOM     13  O   LIG    1        5.882  -3.592 -14.862  0.00  0.00    -0.125 OA
ENDBRANCH   8  11
BRANCH   1  14
ATOM     14  C   LIG    1        5.600  -8.723 -19.783  0.00  0.00    +0.548 C 
ATOM     15  O   LIG    1        5.996  -9.787 -19.346  0.00  0.00    -0.447 OA
BRANCH  14  16
ATOM     16  O   LIG    1        4.739  -8.699 -20.820  0.00  0.00    -0.342 OA
BRANCH  16  17
ATOM     17  C   LIG    1        3.355  -8.531 -20.511  0.00  0.00    +0.398 C 
ATOM     18  C   LIG    1        2.718  -9.899 -20.261  0.00  0.00    +0.090 C 
BRANCH  17  19
ATOM     19  O   LIG    1        2.695  -7.892 -21.606  0.00  0.00    -0.350 OA
BRANCH  19  20
ATOM     20  C   LIG    1        1.649  -7.105 -21.313  0.00  0.00    +0.462 C 
ATOM     21  O   LIG    1        1.808  -6.114 -20.639  0.00  0.00    -0.483 OA
BRANCH  20  23
ATOM     22  C   LIG    1        0.397  -8.490 -22.944  0.00  0.00    +0.058 C 
ATOM     23  C   LIG    1        0.275  -7.455 -21.824  0.00  0.00    +0.024 C 
ATOM     24  C   LIG    1       -0.560  -8.037 -20.681  0.00  0.00    +0.064 C 
ENDBRANCH  20  23
ENDBRANCH  19  20
ENDBRANCH  17  19
ENDBRANCH  16  17
ENDBRANCH  14  16
ENDBRANCH   1  14
BRANCH   6  25
ATOM     25  O   LIG    1        8.654  -2.006 -19.044  0.00  0.00    -0.468 OA
ATOM     26  H   LIG    1        8.062  -1.300 -19.335  0.00  0.00    +0.401 HD
ENDBRANCH   6  25
BRANCH   7  27
ATOM     27  O   LIG    1        7.940  -2.173 -16.393  0.00  0.00    -0.467 OA
ATOM     28  H   LIG    1        8.877  -2.103 -16.167  0.00  0.00    +0.412 HD
ENDBRANCH   7  27
TORSDOF 9
ENDMDL
MODEL 3
REMARK VINA RESULT:      -6.4      2.683      4.868
REMARK  Name = CHEMBL1089538
REMARK                            x       y       z     vdW  Elec       q    Type
REMARK                         _______ _______ _______ _____ _____    ______ ____
ROOT
ATOM      1  C   LIG    1       -2.946 -11.547 -21.367  0.00  0.00    -0.177 A 
ATOM      2  C   LIG    1       -2.948 -12.640 -20.553  0.00  0.00    +0.028 A 
ATOM      3 CL   LIG    1       -2.279 -14.142 -21.110  0.00  0.00    +0.005 Cl
ATOM      4  C   LIG    1       -3.493 -12.548 -19.259  0.00  0.00    -0.084 A 
ATOM      5  C   LIG    1       -3.586 -13.566 -18.273  0.00  0.00    +0.135 A 
ATOM      6  C   LIG    1       -4.148 -13.313 -17.061  0.00  0.00    +0.095 A 
ATOM      7  C   LIG    1       -4.652 -12.047 -16.741  0.00  0.00    +0.192 A 
ATOM      8  C   LIG    1       -4.578 -11.030 -17.676  0.00  0.00    -0.013 A 
ATOM      9  C   LIG    1       -4.010 -11.279 -18.907  0.00  0.00    -0.091 A 
ATOM     10  S   LIG    1       -3.714 -10.294 -20.355  0.00  0.00    +0.220 S 
ENDROOT
BRANCH   8  11
ATOM     11  N   LIG    1       -5.106  -9.685 -17.357  0.00  0.00    +0.023 N 
ATOM     12  O   LIG    1       -6.141  -9.571 -16.744  0.00  0.00    -0.109 OA
ATOM     13  O   LIG    1       -4.501  -8.699 -17.711  0.00  0.00    -0.125 OA
ENDBRANCH   8  11
BRANCH   1  14
ATOM     14  C   LIG    1       -2.434 -11.428 -22.735  0.00  0.00    +0.548 C 
ATOM     15  O   LIG    1       -1.250 -11.599 -22.957  0.00  0.00    -0.447 OA
BRANCH  14  16
ATOM     16  O   LIG    1       -3.274 -11.130 -23.746  0.00  0.00    -0.342 OA
BRANCH  16  17
ATOM     17  C   LIG    1       -4.384 -12.006 -23.948  0.00  0.00    +0.398 C 
ATOM     18  C   LIG    1       -4.575 -12.251 -25.446  0.00  0.00    +0.090 C 
BRANCH  17  19
ATOM     19  O   LIG    1       -5.566 -11.410 -23.409  0.00  0.00    -0.350 OA
BRANCH  19  20
ATOM     20  C   LIG    1       -6.478 -12.238 -22.876  0.00  0.00    +0.462 C 
ATOM     21  O   LIG    1       -6.181 -12.938 -21.936  0.00  0.00    -0.483 OA
BRANCH  20  23
ATOM     22  C   LIG    1       -8.838 -12.813 -22.382  0.00  0.00    +0.058 C 
ATOM     23  C   LIG    1       -7.871 -12.293 -23.447  0.00  0.00    +0.024 C 
ATOM     24  C   LIG    1       -8.298 -10.890 -23.883  0.00  0.00    +0.064 C 
ENDBRANCH  20  23
ENDBRANCH  19  20
ENDBRANCH  17  19
ENDBRANCH  16  17
ENDBRANCH  14  16
ENDBRANCH   1  14
BRANCH   6  25
ATOM     25  O   LIG    1       -4.221 -14.311 -16.140  0.00  0.00    -0.468 OA
ATOM     26  H   LIG    1       -5.015 -14.859 -16.216  0.00  0.00    +0.401 HD
ENDBRANCH   6  25
BRANCH   7  27
ATOM     27  O   LIG    1       -5.208 -11.819 -15.522  0.00  0.00    -0.467 OA
ATOM     28  H   LIG    1       -5.453 -10.897 -15.367  0.00  0.00    +0.412 HD
ENDBRANCH   7  27
TORSDOF 9
ENDMDL
MODEL 4
REMARK VINA RESULT:      -6.3      1.350      2.234
REMARK  Name = CHEMBL1089538
REMARK                            x       y       z     vdW  Elec       q    Type
REMARK                         _______ _______ _______ _____ _____    ______ ____
ROOT
ATOM      1  C   LIG    1       -2.900 -11.430 -21.367  0.00  0.00    -0.177 A 
ATOM      2  C   LIG    1       -2.909 -12.532 -20.567  0.00  0.00    +0.028 A 
ATOM      3 CL   LIG    1       -2.231 -14.026 -21.135  0.00  0.00    +0.005 Cl
ATOM      4  C   LIG    1       -3.468 -12.458 -19.278  0.00  0.00    -0.084 A 
ATOM      5  C   LIG    1       -3.570 -13.488 -18.306  0.00  0.00    +0.135 A 
ATOM      6  C   LIG    1       -4.145 -13.251 -17.097  0.00  0.00    +0.095 A 
ATOM      7  C   LIG    1       -4.655 -11.990 -16.766  0.00  0.00    +0.192 A 
ATOM      8  C   LIG    1       -4.573 -10.962 -17.688  0.00  0.00    -0.013 A 
ATOM      9  C   LIG    1       -3.991 -11.194 -18.916  0.00  0.00    -0.091 A 
ATOM     10  S   LIG    1       -3.681 -10.191 -20.348  0.00  0.00    +0.220 S 
ENDROOT
BRANCH   8  11
ATOM     11  N   LIG    1       -5.106  -9.621 -17.358  0.00  0.00    +0.023 N 
ATOM     12  O   LIG    1       -4.498  -8.630 -17.688  0.00  0.00    -0.109 OA
ATOM     13  O   LIG    1       -6.151  -9.517 -16.758  0.00  0.00    -0.125 OA
ENDBRANCH   8  11
BRANCH   1  14
ATOM     14  C   LIG    1       -2.373 -11.293 -22.727  0.00  0.00    +0.548 C 
ATOM     15  O   LIG    1       -3.131 -11.085 -23.655  0.00  0.00    -0.447 OA
BRANCH  14  16
ATOM     16  O   LIG    1       -1.047 -11.398 -22.951  0.00  0.00    -0.342 OA
BRANCH  16  17
ATOM     17  C   LIG    1       -0.260 -10.224 -22.746  0.00  0.00    +0.398 C 
ATOM     18  C   LIG    1        0.301 -10.228 -21.322  0.00  0.00    +0.090 C 
BRANCH  17  19
ATOM     19  O   LIG    1       -1.074  -9.065 -22.933  0.00  0.00    -0.350 OA
BRANCH  19  20
ATOM     20  C   LIG    1       -0.598  -8.110 -23.748  0.00  0.00    +0.462 C 
ATOM     21  O   LIG    1        0.237  -8.385 -24.578  0.00  0.00    -0.483 OA
BRANCH  20  23
ATOM     22  C   LIG    1        0.081  -5.734 -23.541  0.00  0.00    +0.058 C 
ATOM     23  C   LIG    1       -1.106  -6.696 -23.630  0.00  0.00    +0.024 C 
ATOM     24  C   LIG    1       -1.950  -6.354 -24.859  0.00  0.00    +0.064 C 
ENDBRANCH  20  23
ENDBRANCH  19  20
ENDBRANCH  17  19
ENDBRANCH  16  17
ENDBRANCH  14  16
ENDBRANCH   1  14
BRANCH   6  25
ATOM     25  O   LIG    1       -4.227 -14.261 -16.189  0.00  0.00    -0.468 OA
ATOM     26  H   LIG    1       -5.060 -14.283 -15.699  0.00  0.00    +0.401 HD
ENDBRANCH   6  25
BRANCH   7  27
ATOM     27  O   LIG    1       -5.225 -11.779 -15.550  0.00  0.00    -0.467 OA
ATOM     28  H   LIG    1       -4.704 -11.213 -14.965  0.00  0.00    +0.412 HD
ENDBRANCH   7  27
TORSDOF 9
ENDMDL
MODEL 5
REMARK VINA RESULT:      -6.1      4.479      7.289
REMARK  Name = CHEMBL1089538
REMARK                            x       y       z     vdW  Elec       q    Type
REMARK                         _______ _______ _______ _____ _____    ______ ____
ROOT
ATOM      1  C   LIG    1       -2.562 -14.947 -21.132  0.00  0.00    -0.177 A 
ATOM      2  C   LIG    1       -3.023 -15.103 -19.860  0.00  0.00    +0.028 A 
ATOM      3 CL   LIG    1       -3.156 -16.691 -19.171  0.00  0.00    +0.005 Cl
ATOM      4  C   LIG    1       -3.390 -13.975 -19.104  0.00  0.00    -0.084 A 
ATOM      5  C   LIG    1       -3.888 -13.935 -17.775  0.00  0.00    +0.135 A 
ATOM      6  C   LIG    1       -4.201 -12.751 -17.183  0.00  0.00    +0.095 A 
ATOM      7  C   LIG    1       -4.044 -11.535 -17.857  0.00  0.00    +0.192 A 
ATOM      8  C   LIG    1       -3.561 -11.535 -19.154  0.00  0.00    -0.013 A 
ATOM      9  C   LIG    1       -3.242 -12.730 -19.761  0.00  0.00    -0.091 A 
ATOM     10  S   LIG    1       -2.606 -13.177 -21.357  0.00  0.00    +0.220 S 
ENDROOT
BRANCH   8  11
ATOM     11  N   LIG    1       -3.389 -10.259 -19.885  0.00  0.00    +0.023 N 
ATOM     12  O   LIG    1       -2.640  -9.413 -19.456  0.00  0.00    -0.109 OA
ATOM     13  O   LIG    1       -3.997 -10.064 -20.912  0.00  0.00    -0.125 OA
ENDBRANCH   8  11
BRANCH   1  14
ATOM     14  C   LIG    1       -2.129 -15.977 -22.080  0.00  0.00    +0.548 C 
ATOM     15  O   LIG    1       -0.970 -16.344 -22.092  0.00  0.00    -0.447 OA
BRANCH  14  16
ATOM     16  O   LIG    1       -3.016 -16.517 -22.940  0.00  0.00    -0.342 OA
BRANCH  16  17
ATOM     17  C   LIG    1       -2.737 -17.834 -23.418  0.00  0.00    +0.398 C 
ATOM     18  C   LIG    1       -2.561 -17.798 -24.937  0.00  0.00    +0.090 C 
BRANCH  17  19
ATOM     19  O   LIG    1       -3.823 -18.702 -23.085  0.00  0.00    -0.350 OA
BRANCH  19  20
ATOM     20  C   LIG    1       -3.862 -19.176 -21.830  0.00  0.00    +0.462 C 
ATOM     21  O   LIG    1       -2.858 -19.615 -21.318  0.00  0.00    -0.483 OA
BRANCH  20  23
ATOM     22  C   LIG    1       -6.301 -19.597 -21.973  0.00  0.00    +0.058 C 
ATOM     23  C   LIG    1       -5.156 -19.159 -21.058  0.00  0.00    +0.024 C 
ATOM     24  C   LIG    1       -5.054 -20.120 -19.872  0.00  0.00    +0.064 C 
ENDBRANCH  20  23
ENDBRANCH  19  20
ENDBRANCH  17  19
ENDBRANCH  16  17
ENDBRANCH  14  16
ENDBRANCH   1  14
BRANCH   6  25
ATOM     25  O   LIG    1       -4.676 -12.749 -15.908  0.00  0.00    -0.468 OA
ATOM     26  H   LIG    1       -4.936 -13.623 -15.584  0.00  0.00    +0.401 HD
ENDBRANCH   6  25
BRANCH   7  27
ATOM     27  O   LIG    1       -4.363 -10.365 -17.243  0.00  0.00    -0.467 OA
ATOM     28  H   LIG    1       -4.530 -10.451 -16.295  0.00  0.00    +0.412 HD
ENDBRANCH   7  27
TORSDOF 9
ENDMDL
MODEL 6
REMARK VINA RESULT:      -6.1      3.951      6.878
REMARK  Name = CHEMBL1089538
REMARK                            x       y       z     vdW  Elec       q    Type
REMARK                         _______ _______ _______ _____ _____    ______ ____
ROOT
ATOM      1  C   LIG    1       -4.851 -10.191 -17.936  0.00  0.00    -0.177 A 
ATOM      2  C   LIG    1       -4.715 -11.463 -17.466  0.00  0.00    +0.028 A 
ATOM      3 CL   LIG    1       -5.366 -11.892 -15.915  0.00  0.00    +0.005 Cl
ATOM      4  C   LIG    1       -4.047 -12.428 -18.241  0.00  0.00    -0.084 A 
ATOM      5  C   LIG    1       -3.807 -13.791 -17.927  0.00  0.00    +0.135 A 
ATOM      6  C   LIG    1       -3.138 -14.599 -18.792  0.00  0.00    +0.095 A 
ATOM      7  C   LIG    1       -2.664 -14.120 -20.019  0.00  0.00    +0.192 A 
ATOM      8  C   LIG    1       -2.879 -12.797 -20.360  0.00  0.00    -0.013 A 
ATOM      9  C   LIG    1       -3.557 -11.972 -19.488  0.00  0.00    -0.091 A 
ATOM     10  S   LIG    1       -4.044 -10.264 -19.526  0.00  0.00    +0.220 S 
ENDROOT
BRANCH   8  11
ATOM     11  N   LIG    1       -2.386 -12.270 -21.652  0.00  0.00    +0.023 N 
ATOM     12  O   LIG    1       -2.920 -12.602 -22.684  0.00  0.00    -0.109 OA
ATOM     13  O   LIG    1       -1.447 -11.508 -21.675  0.00  0.00    -0.125 OA
ENDBRANCH   8  11
BRANCH   1  14
ATOM     14  C   LIG    1       -5.505  -9.046 -17.296  0.00  0.00    +0.548 C 
ATOM     15  O   LIG    1       -4.853  -8.065 -16.995  0.00  0.00    -0.447 OA
BRANCH  14  16
ATOM     16  O   LIG    1       -6.828  -9.081 -17.040  0.00  0.00    -0.342 OA
BRANCH  16  17
ATOM     17  C   LIG    1       -7.464  -7.837 -16.743  0.00  0.00    +0.398 C 
ATOM     18  C   LIG    1       -8.623  -8.076 -15.772  0.00  0.00    +0.090 C 
BRANCH  17  19
ATOM     19  O   LIG    1       -7.967  -7.258 -17.949  0.00  0.00    -0.350 OA
BRANCH  19  20
ATOM     20  C   LIG    1       -7.559  -6.013 -18.243  0.00  0.00    +0.462 C 
ATOM     21  O   LIG    1       -6.384  -5.734 -18.193  0.00  0.00    -0.483 OA
BRANCH  20  23
ATOM     22  C   LIG    1       -7.839  -3.752 -19.221  0.00  0.00    +0.058 C 
ATOM     23  C   LIG    1       -8.567  -4.964 -18.637  0.00  0.00    +0.024 C 
ATOM     24  C   LIG    1       -9.519  -5.542 -19.687  0.00  0.00    +0.064 C 
ENDBRANCH  20  23
ENDBRANCH  19  20
ENDBRANCH  17  19
ENDBRANCH  16  17
ENDBRANCH  14  16
ENDBRANCH   1  14
BRANCH   6  25
ATOM     25  O   LIG    1       -2.925 -15.901 -18.458  0.00  0.00    -0.468 OA
ATOM     26  H   LIG    1       -3.736 -16.410 -18.323  0.00  0.00    +0.401 HD
ENDBRANCH   6  25
BRANCH   7  27
ATOM     27  O   LIG    1       -1.998 -14.948 -20.866  0.00  0.00    -0.467 OA
ATOM     28  H   LIG    1       -2.429 -15.063 -21.724  0.00  0.00    +0.412 HD
ENDBRANCH   7  27
TORSDOF 9
ENDMDL
MODEL 7
REMARK VINA RESULT:      -6.0      7.081     10.818
REMARK  Name = CHEMBL1089538
REMARK                            x       y       z     vdW  Elec       q    Type
REMARK                         _______ _______ _______ _____ _____    ______ ____
ROOT
ATOM      1  C   LIG    1        6.500  -7.128 -20.442  0.00  0.00    -0.177 A 
ATOM      2  C   LIG    1        6.347  -7.268 -19.095  0.00  0.00    +0.028 A 
ATOM      3 CL   LIG    1        5.768  -8.766 -18.436  0.00  0.00    +0.005 Cl
ATOM      4  C   LIG    1        6.661  -6.197 -18.240  0.00  0.00    -0.084 A 
ATOM      5  C   LIG    1        6.569  -6.150 -16.824  0.00  0.00    +0.135 A 
ATOM      6  C   LIG    1        6.913  -5.026 -16.139  0.00  0.00    +0.095 A 
ATOM      7  C   LIG    1        7.368  -3.880 -16.801  0.00  0.00    +0.192 A 
ATOM      8  C   LIG    1        7.471  -3.888 -18.180  0.00  0.00    -0.013 A 
ATOM      9  C   LIG    1        7.125  -5.023 -18.882  0.00  0.00    -0.091 A 
ATOM     10  S   LIG    1        7.110  -5.459 -20.603  0.00  0.00    +0.220 S 
ENDROOT
BRANCH   8  11
ATOM     11  N   LIG    1        7.950  -2.686 -18.899  0.00  0.00    +0.023 N 
ATOM     12  O   LIG    1        7.223  -1.730 -19.029  0.00  0.00    -0.109 OA
ATOM     13  O   LIG    1        9.069  -2.662 -19.358  0.00  0.00    -0.125 OA
ENDBRANCH   8  11
BRANCH   1  14
ATOM     14  C   LIG    1        6.234  -8.109 -21.498  0.00  0.00    +0.548 C 
ATOM     15  O   LIG    1        7.040  -8.990 -21.726  0.00  0.00    -0.447 OA
BRANCH  14  16
ATOM     16  O   LIG    1        5.096  -8.033 -22.218  0.00  0.00    -0.342 OA
BRANCH  16  17
ATOM     17  C   LIG    1        3.866  -8.130 -21.498  0.00  0.00    +0.398 C 
ATOM     18  C   LIG    1        3.518  -9.603 -21.278  0.00  0.00    +0.090 C 
BRANCH  17  19
ATOM     19  O   LIG    1        2.824  -7.503 -22.249  0.00  0.00    -0.350 OA
BRANCH  19  20
ATOM     20  C   LIG    1        1.724  -7.134 -21.575  0.00  0.00    +0.462 C 
ATOM     21  O   LIG    1        1.808  -6.340 -20.667  0.00  0.00    -0.483 OA
BRANCH  20  23
ATOM     22  C   LIG    1       -0.429  -7.981 -20.681  0.00  0.00    +0.058 C 
ATOM     23  C   LIG    1        0.382  -7.710 -21.950  0.00  0.00    +0.024 C 
ATOM     24  C   LIG    1       -0.370  -6.712 -22.833  0.00  0.00    +0.064 C 
ENDBRANCH  20  23
ENDBRANCH  19  20
ENDBRANCH  17  19
ENDBRANCH  16  17
ENDBRANCH  14  16
ENDBRANCH   1  14
BRANCH   6  25
ATOM     25  O   LIG    1        6.812  -5.016 -14.783  0.00  0.00    -0.468 OA
ATOM     26  H   LIG    1        7.416  -4.399 -14.348  0.00  0.00    +0.401 HD
ENDBRANCH   6  25
BRANCH   7  27
ATOM     27  O   LIG    1        7.706  -2.769 -16.094  0.00  0.00    -0.467 OA
ATOM     28  H   LIG    1        8.440  -2.269 -16.474  0.00  0.00    +0.412 HD
ENDBRANCH   7  27
TORSDOF 9
ENDMDL
MODEL 8
REMARK VINA RESULT:      -6.0      3.617      6.028
REMARK  Name = CHEMBL1089538
REMARK                            x       y       z     vdW  Elec       q    Type
REMARK                         _______ _______ _______ _____ _____    ______ ____
ROOT
ATOM      1  C   LIG    1       -2.621 -14.939 -21.146  0.00  0.00    -0.177 A 
ATOM      2  C   LIG    1       -3.067 -15.086 -19.867  0.00  0.00    +0.028 A 
ATOM      3 CL   LIG    1       -3.200 -16.670 -19.169  0.00  0.00    +0.005 Cl
ATOM      4  C   LIG    1       -3.419 -13.952 -19.113  0.00  0.00    -0.084 A 
ATOM      5  C   LIG    1       -3.901 -13.902 -17.778  0.00  0.00    +0.135 A 
ATOM      6  C   LIG    1       -4.200 -12.714 -17.189  0.00  0.00    +0.095 A 
ATOM      7  C   LIG    1       -4.045 -11.502 -17.871  0.00  0.00    +0.192 A 
ATOM      8  C   LIG    1       -3.579 -11.511 -19.174  0.00  0.00    -0.013 A 
ATOM      9  C   LIG    1       -3.273 -12.712 -19.778  0.00  0.00    -0.091 A 
ATOM     10  S   LIG    1       -2.659 -13.170 -21.380  0.00  0.00    +0.220 S 
ENDROOT
BRANCH   8  11
ATOM     11  N   LIG    1       -3.409 -10.240 -19.914  0.00  0.00    +0.023 N 
ATOM     12  O   LIG    1       -4.006 -10.059 -20.949  0.00  0.00    -0.109 OA
ATOM     13  O   LIG    1       -2.673  -9.383 -19.482  0.00  0.00    -0.125 OA
ENDBRANCH   8  11
BRANCH   1  14
ATOM     14  C   LIG    1       -2.206 -15.976 -22.094  0.00  0.00    +0.548 C 
ATOM     15  O   LIG    1       -1.105 -16.483 -21.996  0.00  0.00    -0.447 OA
BRANCH  14  16
ATOM     16  O   LIG    1       -3.044 -16.368 -23.075  0.00  0.00    -0.342 OA
BRANCH  16  17
ATOM     17  C   LIG    1       -4.440 -16.157 -22.858  0.00  0.00    +0.398 C 
ATOM     18  C   LIG    1       -5.094 -17.473 -22.431  0.00  0.00    +0.090 C 
BRANCH  17  19
ATOM     19  O   LIG    1       -5.046 -15.695 -24.066  0.00  0.00    -0.350 OA
BRANCH  19  20
ATOM     20  C   LIG    1       -5.115 -14.367 -24.245  0.00  0.00    +0.462 C 
ATOM     21  O   LIG    1       -4.149 -13.759 -24.642  0.00  0.00    -0.483 OA
BRANCH  20  23
ATOM     22  C   LIG    1       -7.566 -14.621 -23.969  0.00  0.00    +0.058 C 
ATOM     23  C   LIG    1       -6.399 -13.633 -23.951  0.00  0.00    +0.024 C 
ATOM     24  C   LIG    1       -6.306 -12.977 -22.572  0.00  0.00    +0.064 C 
ENDBRANCH  20  23
ENDBRANCH  19  20
ENDBRANCH  17  19
ENDBRANCH  16  17
ENDBRANCH  14  16
ENDBRANCH   1  14
BRANCH   6  25
ATOM     25  O   LIG    1       -4.659 -12.703 -15.908  0.00  0.00    -0.468 OA
ATOM     26  H   LIG    1       -5.489 -12.220 -15.792  0.00  0.00    +0.401 HD
ENDBRANCH   6  25
BRANCH   7  27
ATOM     27  O   LIG    1       -4.351 -10.327 -17.260  0.00  0.00    -0.467 OA
ATOM     28  H   LIG    1       -4.037 -10.265 -16.348  0.00  0.00    +0.412 HD
ENDBRANCH   7  27
TORSDOF 9
ENDMDL
MODEL 9
REMARK VINA RESULT:      -5.9      4.610      6.654
REMARK  Name = CHEMBL1089538
REMARK                            x       y       z     vdW  Elec       q    Type
REMARK                         _______ _______ _______ _____ _____    ______ ____
ROOT
ATOM      1  C   LIG    1       -4.504 -11.488 -22.973  0.00  0.00    -0.177 A 
ATOM      2  C   LIG    1       -5.173 -10.445 -23.541  0.00  0.00    +0.028 A 
ATOM      3 CL   LIG    1       -4.297  -9.071 -24.140  0.00  0.00    +0.005 Cl
ATOM      4  C   LIG    1       -6.575 -10.485 -23.642  0.00  0.00    -0.084 A 
ATOM      5  C   LIG    1       -7.442  -9.506 -24.195  0.00  0.00    +0.135 A 
ATOM      6  C   LIG    1       -8.788  -9.697 -24.215  0.00  0.00    +0.095 A 
ATOM      7  C   LIG    1       -9.367 -10.861 -23.695  0.00  0.00    +0.192 A 
ATOM      8  C   LIG    1       -8.554 -11.837 -23.148  0.00  0.00    -0.013 A 
ATOM      9  C   LIG    1       -7.189 -11.650 -23.123  0.00  0.00    -0.091 A 
ATOM     10  S   LIG    1       -5.817 -12.616 -22.541  0.00  0.00    +0.220 S 
ENDROOT
BRANCH   8  11
ATOM     11  N   LIG    1       -9.146 -13.074 -22.591  0.00  0.00    +0.023 N 
ATOM     12  O   LIG    1       -8.879 -14.146 -23.081  0.00  0.00    -0.109 OA
ATOM     13  O   LIG    1       -9.898 -13.012 -21.646  0.00  0.00    -0.125 OA
ENDBRANCH   8  11
BRANCH   1  14
ATOM     14  C   LIG    1       -3.061 -11.646 -22.773  0.00  0.00    +0.548 C 
ATOM     15  O   LIG    1       -2.323 -11.756 -23.732  0.00  0.00    -0.447 OA
BRANCH  14  16
ATOM     16  O   LIG    1       -2.553 -11.671 -21.524  0.00  0.00    -0.342 OA
BRANCH  16  17
ATOM     17  C   LIG    1       -2.832 -10.547 -20.687  0.00  0.00    +0.398 C 
ATOM     18  C   LIG    1       -1.882  -9.401 -21.038  0.00  0.00    +0.090 C 
BRANCH  17  19
ATOM     19  O   LIG    1       -2.650 -10.915 -19.319  0.00  0.00    -0.350 OA
BRANCH  19  20
ATOM     20  C   LIG    1       -3.656 -10.640 -18.474  0.00  0.00    +0.462 C 
ATOM     21  O   LIG    1       -4.318  -9.640 -18.627  0.00  0.00    -0.483 OA
BRANCH  20  23
ATOM     22  C   LIG    1       -5.186 -11.073 -16.571  0.00  0.00    +0.058 C 
ATOM     23  C   LIG    1       -3.961 -11.579 -17.334  0.00  0.00    +0.024 C 
ATOM     24  C   LIG    1       -4.246 -12.976 -17.889  0.00  0.00    +0.064 C 
ENDBRANCH  20  23
ENDBRANCH  19  20
ENDBRANCH  17  19
ENDBRANCH  16  17
ENDBRANCH  14  16
ENDBRANCH   1  14
BRANCH   6  25
ATOM     25  O   LIG    1       -9.589  -8.738 -24.753  0.00  0.00    -0.468 OA
ATOM     26  H   LIG    1      -10.494  -8.744 -24.411  0.00  0.00    +0.401 HD
ENDBRANCH   6  25
BRANCH   7  27
ATOM     27  O   LIG    1      -10.715 -11.028 -23.727  0.00  0.00    -0.467 OA
ATOM     28  H   LIG    1      -11.089 -11.370 -22.903  0.00  0.00    +0.412 HD
ENDBRANCH   7  27
TORSDOF 9
ENDMDL
