MODEL 1
REMARK VINA RESULT:      -7.1      0.000      0.000
REMARK  Name = CHEMBL197115
REMARK                            x       y       z     vdW  Elec       q    Type
REMARK                         _______ _______ _______ _____ _____    ______ ____
ROOT
ATOM      1  C   LIG    1       -4.116 -10.400 -18.405  0.00  0.00    -0.121 A 
ATOM      2  C   LIG    1       -4.592  -9.084 -18.452  0.00  0.00    +0.112 A 
ATOM      3  C   LIG    1       -5.493  -8.644 -17.509  0.00  0.00    +0.056 A 
ATOM      4  C   LIG    1       -5.935  -9.504 -16.511  0.00  0.00    +0.131 A 
ATOM      5  C   LIG    1       -5.466 -10.817 -16.458  0.00  0.00    +0.119 A 
ATOM      6  C   LIG    1       -4.566 -11.267 -17.402  0.00  0.00    +0.004 A 
ENDROOT
BRANCH   6   7
ATOM      7  N   LIG    1       -4.072 -12.662 -17.351  0.00  0.00    +0.037 N 
ATOM      8  O   LIG    1       -4.669 -13.536 -17.933  0.00  0.00    -0.132 OA
ATOM      9  O   LIG    1       -3.071 -12.926 -16.727  0.00  0.00    -0.117 OA
ENDBRANCH   6   7
BRANCH   1  10
ATOM     10  C   LIG    1       -3.154 -10.871 -19.410  0.00  0.00    +0.383 C 
ATOM     11  O   LIG    1       -3.495 -11.689 -20.239  0.00  0.00    -0.415 OA
BRANCH  10  12
ATOM     12  C   LIG    1       -1.744 -10.339 -19.412  0.00  0.00    +0.113 C 
BRANCH  12  16
ATOM     13  C   LIG    1       -1.250  -7.630 -22.677  0.00  0.00    +0.009 A 
ATOM     14  C   LIG    1       -0.528  -7.447 -21.512  0.00  0.00    +0.007 A 
ATOM     15  C   LIG    1       -0.689  -8.323 -20.455  0.00  0.00    +0.014 A 
ATOM     16  C   LIG    1       -1.570  -9.383 -20.563  0.00  0.00    -0.085 A 
ATOM     17  C   LIG    1       -2.291  -9.566 -21.729  0.00  0.00    +0.015 A 
ATOM     18  C   LIG    1       -2.130  -8.690 -22.786  0.00  0.00    +0.008 A 
ENDBRANCH  12  16
ENDBRANCH  10  12
ENDBRANCH   1  10
BRANCH   4  19
ATOM     19  O   LIG    1       -6.825  -9.065 -15.585  0.00  0.00    -0.472 OA
ATOM     20  H   LIG    1       -7.664  -8.761 -15.957  0.00  0.00    +0.403 HD
ENDBRANCH   4  19
BRANCH   5  21
ATOM     21  O   LIG    1       -5.900 -11.655 -15.478  0.00  0.00    -0.473 OA
ATOM     22  H   LIG    1       -6.744 -11.393 -15.083  0.00  0.00    +0.404 HD
ENDBRANCH   5  21
TORSDOF 6
ENDMDL
MODEL 2
REMARK VINA RESULT:      -6.8      1.623      2.489
REMARK  Name = CHEMBL197115
REMARK                            x       y       z     vdW  Elec       q    Type
REMARK                         _______ _______ _______ _____ _____    ______ ____
ROOT
ATOM      1  C   LIG    1       -3.763 -11.696 -19.561  0.00  0.00    -0.121 A 
ATOM      2  C   LIG    1       -4.140 -10.580 -18.803  0.00  0.00    +0.112 A 
ATOM      3  C   LIG    1       -4.545 -10.740 -17.497  0.00  0.00    +0.056 A 
ATOM      4  C   LIG    1       -4.583 -12.008 -16.929  0.00  0.00    +0.131 A 
ATOM      5  C   LIG    1       -4.210 -13.124 -17.677  0.00  0.00    +0.119 A 
ATOM      6  C   LIG    1       -3.807 -12.973 -18.989  0.00  0.00    +0.004 A 
ENDROOT
BRANCH   6   7
ATOM      7  N   LIG    1       -3.417 -14.157 -19.787  0.00  0.00    +0.037 N 
ATOM      8  O   LIG    1       -4.093 -14.502 -20.727  0.00  0.00    -0.132 OA
ATOM      9  O   LIG    1       -2.421 -14.779 -19.498  0.00  0.00    -0.117 OA
ENDBRANCH   6   7
BRANCH   1  10
ATOM     10  C   LIG    1       -3.331 -11.527 -20.955  0.00  0.00    +0.383 C 
ATOM     11  O   LIG    1       -4.156 -11.420 -21.837  0.00  0.00    -0.415 OA
BRANCH  10  12
ATOM     12  C   LIG    1       -1.862 -11.488 -21.289  0.00  0.00    +0.113 C 
BRANCH  12  16
ATOM     13  C   LIG    1       -0.579  -7.424 -21.580  0.00  0.00    +0.009 A 
ATOM     14  C   LIG    1       -1.179  -8.039 -22.664  0.00  0.00    +0.007 A 
ATOM     15  C   LIG    1       -1.593  -9.354 -22.570  0.00  0.00    +0.014 A 
ATOM     16  C   LIG    1       -1.408 -10.055 -21.393  0.00  0.00    -0.085 A 
ATOM     17  C   LIG    1       -0.809  -9.440 -20.309  0.00  0.00    +0.015 A 
ATOM     18  C   LIG    1       -0.395  -8.124 -20.403  0.00  0.00    +0.008 A 
ENDBRANCH  12  16
ENDBRANCH  10  12
ENDBRANCH   1  10
BRANCH   4  19
ATOM     19  O   LIG    1       -4.984 -12.160 -15.641  0.00  0.00    -0.472 OA
ATOM     20  H   LIG    1       -5.721 -11.587 -15.388  0.00  0.00    +0.403 HD
ENDBRANCH   4  19
BRANCH   5  21
ATOM     21  O   LIG    1       -4.247 -14.363 -17.116  0.00  0.00    -0.473 OA
ATOM     22  H   LIG    1       -3.932 -14.389 -16.202  0.00  0.00    +0.404 HD
ENDBRANCH   5  21
TORSDOF 6
ENDMDL
MODEL 3
REMARK VINA RESULT:      -6.5      1.831      3.158
REMARK  Name = CHEMBL197115
REMARK                            x       y       z     vdW  Elec       q    Type
REMARK                         _______ _______ _______ _____ _____    ______ ____
ROOT
ATOM      1  C   LIG    1       -3.624 -11.801 -19.563  0.00  0.00    -0.121 A 
ATOM      2  C   LIG    1       -3.481 -13.192 -19.501  0.00  0.00    +0.112 A 
ATOM      3  C   LIG    1       -3.699 -13.855 -18.315  0.00  0.00    +0.056 A 
ATOM      4  C   LIG    1       -4.059 -13.147 -17.175  0.00  0.00    +0.131 A 
ATOM      5  C   LIG    1       -4.203 -11.760 -17.228  0.00  0.00    +0.119 A 
ATOM      6  C   LIG    1       -3.981 -11.087 -18.412  0.00  0.00    +0.004 A 
ENDROOT
BRANCH   6   7
ATOM      7  N   LIG    1       -4.127  -9.615 -18.468  0.00  0.00    +0.037 N 
ATOM      8  O   LIG    1       -3.156  -8.918 -18.644  0.00  0.00    -0.132 OA
ATOM      9  O   LIG    1       -5.218  -9.110 -18.339  0.00  0.00    -0.117 OA
ENDBRANCH   6   7
BRANCH   1  10
ATOM     10  C   LIG    1       -3.391 -11.091 -20.828  0.00  0.00    +0.383 C 
ATOM     11  O   LIG    1       -4.281 -10.437 -21.329  0.00  0.00    -0.415 OA
BRANCH  10  12
ATOM     12  C   LIG    1       -2.047 -11.177 -21.504  0.00  0.00    +0.113 C 
BRANCH  12  16
ATOM     13  C   LIG    1       -0.277  -7.292 -21.642  0.00  0.00    +0.009 A 
ATOM     14  C   LIG    1       -1.165  -7.682 -22.627  0.00  0.00    +0.007 A 
ATOM     15  C   LIG    1       -1.737  -8.940 -22.583  0.00  0.00    +0.014 A 
ATOM     16  C   LIG    1       -1.422  -9.807 -21.553  0.00  0.00    -0.085 A 
ATOM     17  C   LIG    1       -0.533  -9.416 -20.568  0.00  0.00    +0.015 A 
ATOM     18  C   LIG    1        0.038  -8.158 -20.612  0.00  0.00    +0.008 A 
ENDBRANCH  12  16
ENDBRANCH  10  12
ENDBRANCH   1  10
BRANCH   4  19
ATOM     19  O   LIG    1       -4.273 -13.805 -16.008  0.00  0.00    -0.472 OA
ATOM     20  H   LIG    1       -4.456 -14.749 -16.116  0.00  0.00    +0.403 HD
ENDBRANCH   4  19
BRANCH   5  21
ATOM     21  O   LIG    1       -4.558 -11.070 -16.110  0.00  0.00    -0.473 OA
ATOM     22  H   LIG    1       -4.755 -11.632 -15.348  0.00  0.00    +0.404 HD
ENDBRANCH   5  21
TORSDOF 6
ENDMDL
MODEL 4
REMARK VINA RESULT:      -6.5      4.728      6.502
REMARK  Name = CHEMBL197115
REMARK                            x       y       z     vdW  Elec       q    Type
REMARK                         _______ _______ _______ _____ _____    ______ ____
ROOT
ATOM      1  C   LIG    1       -3.220 -14.029 -19.431  0.00  0.00    -0.121 A 
ATOM      2  C   LIG    1       -3.417 -14.785 -18.270  0.00  0.00    +0.112 A 
ATOM      3  C   LIG    1       -3.934 -14.192 -17.141  0.00  0.00    +0.056 A 
ATOM      4  C   LIG    1       -4.260 -12.841 -17.149  0.00  0.00    +0.131 A 
ATOM      5  C   LIG    1       -4.067 -12.080 -18.303  0.00  0.00    +0.119 A 
ATOM      6  C   LIG    1       -3.544 -12.666 -19.437  0.00  0.00    +0.004 A 
ENDROOT
BRANCH   6   7
ATOM      7  N   LIG    1       -3.332 -11.859 -20.660  0.00  0.00    +0.037 N 
ATOM      8  O   LIG    1       -2.222 -11.480 -20.948  0.00  0.00    -0.132 OA
ATOM      9  O   LIG    1       -4.270 -11.579 -21.370  0.00  0.00    -0.117 OA
ENDBRANCH   6   7
BRANCH   1  10
ATOM     10  C   LIG    1       -2.668 -14.660 -20.637  0.00  0.00    +0.383 C 
ATOM     11  O   LIG    1       -1.479 -14.888 -20.712  0.00  0.00    -0.415 OA
BRANCH  10  12
ATOM     12  C   LIG    1       -3.578 -15.024 -21.782  0.00  0.00    +0.113 C 
BRANCH  12  16
ATOM     13  C   LIG    1       -5.020 -19.009 -21.240  0.00  0.00    +0.009 A 
ATOM     14  C   LIG    1       -4.090 -18.484 -20.361  0.00  0.00    +0.007 A 
ATOM     15  C   LIG    1       -3.624 -17.195 -20.536  0.00  0.00    +0.014 A 
ATOM     16  C   LIG    1       -4.086 -16.430 -21.591  0.00  0.00    -0.085 A 
ATOM     17  C   LIG    1       -5.015 -16.955 -22.471  0.00  0.00    +0.015 A 
ATOM     18  C   LIG    1       -5.482 -18.244 -22.294  0.00  0.00    +0.008 A 
ENDBRANCH  12  16
ENDBRANCH  10  12
ENDBRANCH   1  10
BRANCH   4  19
ATOM     19  O   LIG    1       -4.770 -12.261 -16.033  0.00  0.00    -0.472 OA
ATOM     20  H   LIG    1       -5.714 -12.423 -15.901  0.00  0.00    +0.403 HD
ENDBRANCH   4  19
BRANCH   5  21
ATOM     21  O   LIG    1       -4.390 -10.758 -18.307  0.00  0.00    -0.473 OA
ATOM     22  H   LIG    1       -3.663 -10.176 -18.042  0.00  0.00    +0.404 HD
ENDBRANCH   5  21
TORSDOF 6
ENDMDL
MODEL 5
REMARK VINA RESULT:      -6.3      8.753     10.246
REMARK  Name = CHEMBL197115
REMARK                            x       y       z     vdW  Elec       q    Type
REMARK                         _______ _______ _______ _____ _____    ______ ____
ROOT
ATOM      1  C   LIG    1       -9.813  -6.772 -24.322  0.00  0.00    -0.121 A 
ATOM      2  C   LIG    1       -9.116  -7.830 -23.725  0.00  0.00    +0.112 A 
ATOM      3  C   LIG    1       -9.531  -9.127 -23.925  0.00  0.00    +0.056 A 
ATOM      4  C   LIG    1      -10.643  -9.390 -24.716  0.00  0.00    +0.131 A 
ATOM      5  C   LIG    1      -11.343  -8.342 -25.314  0.00  0.00    +0.119 A 
ATOM      6  C   LIG    1      -10.937  -7.038 -25.114  0.00  0.00    +0.004 A 
ENDROOT
BRANCH   6   7
ATOM      7  N   LIG    1      -11.682  -5.924 -25.742  0.00  0.00    +0.037 N 
ATOM      8  O   LIG    1      -12.756  -5.591 -25.301  0.00  0.00    -0.132 OA
ATOM      9  O   LIG    1      -11.215  -5.346 -26.696  0.00  0.00    -0.117 OA
ENDBRANCH   6   7
BRANCH   1  10
ATOM     10  C   LIG    1       -9.372  -5.387 -24.109  0.00  0.00    +0.383 C 
ATOM     11  O   LIG    1       -8.462  -4.932 -24.770  0.00  0.00    -0.415 OA
BRANCH  10  12
ATOM     12  C   LIG    1      -10.049  -4.531 -23.070  0.00  0.00    +0.113 C 
BRANCH  12  16
ATOM     13  C   LIG    1       -7.718  -4.538 -19.490  0.00  0.00    +0.009 A 
ATOM     14  C   LIG    1       -8.815  -5.373 -19.602  0.00  0.00    +0.007 A 
ATOM     15  C   LIG    1       -9.569  -5.370 -20.761  0.00  0.00    +0.014 A 
ATOM     16  C   LIG    1       -9.227  -4.533 -21.806  0.00  0.00    -0.085 A 
ATOM     17  C   LIG    1       -8.131  -3.698 -21.694  0.00  0.00    +0.015 A 
ATOM     18  C   LIG    1       -7.376  -3.702 -20.536  0.00  0.00    +0.008 A 
ENDBRANCH  12  16
ENDBRANCH  10  12
ENDBRANCH   1  10
BRANCH   4  19
ATOM     19  O   LIG    1      -11.048 -10.671 -24.909  0.00  0.00    -0.472 OA
ATOM     20  H   LIG    1      -10.332 -11.320 -24.878  0.00  0.00    +0.403 HD
ENDBRANCH   4  19
BRANCH   5  21
ATOM     21  O   LIG    1      -12.430  -8.604 -26.089  0.00  0.00    -0.473 OA
ATOM     22  H   LIG    1      -12.604  -7.930 -26.761  0.00  0.00    +0.404 HD
ENDBRANCH   5  21
TORSDOF 6
ENDMDL
MODEL 6
REMARK VINA RESULT:      -6.2      4.051      5.829
REMARK  Name = CHEMBL197115
REMARK                            x       y       z     vdW  Elec       q    Type
REMARK                         _______ _______ _______ _____ _____    ______ ____
ROOT
ATOM      1  C   LIG    1       -3.564 -12.634 -19.395  0.00  0.00    -0.121 A 
ATOM      2  C   LIG    1       -3.853 -13.359 -18.232  0.00  0.00    +0.112 A 
ATOM      3  C   LIG    1       -4.275 -12.703 -17.098  0.00  0.00    +0.056 A 
ATOM      4  C   LIG    1       -4.413 -11.320 -17.103  0.00  0.00    +0.131 A 
ATOM      5  C   LIG    1       -4.127 -10.590 -18.257  0.00  0.00    +0.119 A 
ATOM      6  C   LIG    1       -3.698 -11.240 -19.397  0.00  0.00    +0.004 A 
ENDROOT
BRANCH   6   7
ATOM      7  N   LIG    1       -3.388 -10.467 -20.620  0.00  0.00    +0.037 N 
ATOM      8  O   LIG    1       -4.191 -10.415 -21.522  0.00  0.00    -0.132 OA
ATOM      9  O   LIG    1       -2.331  -9.887 -20.718  0.00  0.00    -0.117 OA
ENDBRANCH   6   7
BRANCH   1  10
ATOM     10  C   LIG    1       -3.112 -13.333 -20.606  0.00  0.00    +0.383 C 
ATOM     11  O   LIG    1       -1.928 -13.406 -20.858  0.00  0.00    -0.415 OA
BRANCH  10  12
ATOM     12  C   LIG    1       -4.121 -13.958 -21.535  0.00  0.00    +0.113 C 
BRANCH  12  16
ATOM     13  C   LIG    1       -3.890 -18.213 -21.224  0.00  0.00    +0.009 A 
ATOM     14  C   LIG    1       -4.570 -17.632 -22.280  0.00  0.00    +0.007 A 
ATOM     15  C   LIG    1       -4.645 -16.256 -22.379  0.00  0.00    +0.014 A 
ATOM     16  C   LIG    1       -4.041 -15.459 -21.425  0.00  0.00    -0.085 A 
ATOM     17  C   LIG    1       -3.361 -16.040 -20.370  0.00  0.00    +0.015 A 
ATOM     18  C   LIG    1       -3.285 -17.416 -20.271  0.00  0.00    +0.008 A 
ENDBRANCH  12  16
ENDBRANCH  10  12
ENDBRANCH   1  10
BRANCH   4  19
ATOM     19  O   LIG    1       -4.829 -10.677 -15.982  0.00  0.00    -0.472 OA
ATOM     20  H   LIG    1       -4.771 -11.211 -15.178  0.00  0.00    +0.403 HD
ENDBRANCH   4  19
BRANCH   5  21
ATOM     21  O   LIG    1       -4.265  -9.237 -18.258  0.00  0.00    -0.473 OA
ATOM     22  H   LIG    1       -3.489  -8.762 -17.930  0.00  0.00    +0.404 HD
ENDBRANCH   5  21
TORSDOF 6
ENDMDL
MODEL 7
REMARK VINA RESULT:      -5.7      3.742      6.570
REMARK  Name = CHEMBL197115
REMARK                            x       y       z     vdW  Elec       q    Type
REMARK                         _______ _______ _______ _____ _____    ______ ____
ROOT
ATOM      1  C   LIG    1       -1.652  -9.737 -21.474  0.00  0.00    -0.121 A 
ATOM      2  C   LIG    1       -0.867  -9.555 -20.330  0.00  0.00    +0.112 A 
ATOM      3  C   LIG    1       -0.060  -8.445 -20.218  0.00  0.00    +0.056 A 
ATOM      4  C   LIG    1       -0.021  -7.505 -21.240  0.00  0.00    +0.131 A 
ATOM      5  C   LIG    1       -0.801  -7.679 -22.384  0.00  0.00    +0.119 A 
ATOM      6  C   LIG    1       -1.608  -8.791 -22.506  0.00  0.00    +0.004 A 
ENDROOT
BRANCH   6   7
ATOM      7  N   LIG    1       -2.432  -8.981 -23.722  0.00  0.00    +0.037 N 
ATOM      8  O   LIG    1       -3.549  -8.523 -23.772  0.00  0.00    -0.132 OA
ATOM      9  O   LIG    1       -1.986  -9.594 -24.664  0.00  0.00    -0.117 OA
ENDBRANCH   6   7
BRANCH   1  10
ATOM     10  C   LIG    1       -2.514 -10.921 -21.596  0.00  0.00    +0.383 C 
ATOM     11  O   LIG    1       -2.092 -11.926 -22.127  0.00  0.00    -0.415 OA
BRANCH  10  12
ATOM     12  C   LIG    1       -3.922 -10.886 -21.061  0.00  0.00    +0.113 C 
BRANCH  12  16
ATOM     13  C   LIG    1       -4.018 -12.676 -17.184  0.00  0.00    +0.009 A 
ATOM     14  C   LIG    1       -4.037 -11.299 -17.310  0.00  0.00    +0.007 A 
ATOM     15  C   LIG    1       -4.005 -10.720 -18.565  0.00  0.00    +0.014 A 
ATOM     16  C   LIG    1       -3.955 -11.517 -19.693  0.00  0.00    -0.085 A 
ATOM     17  C   LIG    1       -3.937 -12.894 -19.567  0.00  0.00    +0.015 A 
ATOM     18  C   LIG    1       -3.969 -13.473 -18.312  0.00  0.00    +0.008 A 
ENDBRANCH  12  16
ENDBRANCH  10  12
ENDBRANCH   1  10
BRANCH   4  19
ATOM     19  O   LIG    1        0.777  -6.413 -21.125  0.00  0.00    -0.472 OA
ATOM     20  H   LIG    1        0.521  -5.812 -20.412  0.00  0.00    +0.403 HD
ENDBRANCH   4  19
BRANCH   5  21
ATOM     21  O   LIG    1       -0.761  -6.755 -23.381  0.00  0.00    -0.473 OA
ATOM     22  H   LIG    1       -0.167  -6.011 -23.204  0.00  0.00    +0.404 HD
ENDBRANCH   5  21
TORSDOF 6
ENDMDL
MODEL 8
REMARK VINA RESULT:      -5.7      2.413      3.469
REMARK  Name = CHEMBL197115
REMARK                            x       y       z     vdW  Elec       q    Type
REMARK                         _______ _______ _______ _____ _____    ______ ____
ROOT
ATOM      1  C   LIG    1       -3.253 -11.143 -19.364  0.00  0.00    -0.121 A 
ATOM      2  C   LIG    1       -3.764 -10.932 -18.077  0.00  0.00    +0.112 A 
ATOM      3  C   LIG    1       -4.132 -12.006 -17.298  0.00  0.00    +0.056 A 
ATOM      4  C   LIG    1       -4.000 -13.300 -17.786  0.00  0.00    +0.131 A 
ATOM      5  C   LIG    1       -3.492 -13.519 -19.067  0.00  0.00    +0.119 A 
ATOM      6  C   LIG    1       -3.125 -12.448 -19.857  0.00  0.00    +0.004 A 
ENDROOT
BRANCH   6   7
ATOM      7  N   LIG    1       -2.592 -12.677 -21.218  0.00  0.00    +0.037 N 
ATOM      8  O   LIG    1       -3.344 -12.959 -22.122  0.00  0.00    -0.132 OA
ATOM      9  O   LIG    1       -1.405 -12.583 -21.427  0.00  0.00    -0.117 OA
ENDBRANCH   6   7
BRANCH   1  10
ATOM     10  C   LIG    1       -2.860  -9.999 -20.197  0.00  0.00    +0.383 C 
ATOM     11  O   LIG    1       -3.246  -9.923 -21.344  0.00  0.00    -0.415 OA
BRANCH  10  12
ATOM     12  C   LIG    1       -1.975  -8.920 -19.627  0.00  0.00    +0.113 C 
BRANCH  12  16
ATOM     13  C   LIG    1        1.487  -8.468 -22.087  0.00  0.00    +0.009 A 
ATOM     14  C   LIG    1        0.505  -7.494 -22.090  0.00  0.00    +0.007 A 
ATOM     15  C   LIG    1       -0.615  -7.641 -21.294  0.00  0.00    +0.014 A 
ATOM     16  C   LIG    1       -0.754  -8.761 -20.496  0.00  0.00    -0.085 A 
ATOM     17  C   LIG    1        0.227  -9.735 -20.494  0.00  0.00    +0.015 A 
ATOM     18  C   LIG    1        1.348  -9.587 -21.289  0.00  0.00    +0.008 A 
ENDBRANCH  12  16
ENDBRANCH  10  12
ENDBRANCH   1  10
BRANCH   4  19
ATOM     19  O   LIG    1       -4.365 -14.355 -17.014  0.00  0.00    -0.472 OA
ATOM     20  H   LIG    1       -3.639 -14.740 -16.505  0.00  0.00    +0.403 HD
ENDBRANCH   4  19
BRANCH   5  21
ATOM     21  O   LIG    1       -3.363 -14.788 -19.540  0.00  0.00    -0.473 OA
ATOM     22  H   LIG    1       -2.772 -14.864 -20.303  0.00  0.00    +0.404 HD
ENDBRANCH   5  21
TORSDOF 6
ENDMDL
MODEL 9
REMARK VINA RESULT:      -5.6      4.707      7.609
REMARK  Name = CHEMBL197115
REMARK                            x       y       z     vdW  Elec       q    Type
REMARK                         _______ _______ _______ _____ _____    ______ ____
ROOT
ATOM      1  C   LIG    1       -0.428  -7.571 -22.510  0.00  0.00    -0.121 A 
ATOM      2  C   LIG    1       -1.516  -7.447 -23.382  0.00  0.00    +0.112 A 
ATOM      3  C   LIG    1       -1.566  -6.404 -24.279  0.00  0.00    +0.056 A 
ATOM      4  C   LIG    1       -0.538  -5.470 -24.320  0.00  0.00    +0.131 A 
ATOM      5  C   LIG    1        0.551  -5.585 -23.455  0.00  0.00    +0.119 A 
ATOM      6  C   LIG    1        0.605  -6.625 -22.549  0.00  0.00    +0.004 A 
ENDROOT
BRANCH   6   7
ATOM      7  N   LIG    1        1.756  -6.746 -21.626  0.00  0.00    +0.037 N 
ATOM      8  O   LIG    1        2.713  -7.414 -21.937  0.00  0.00    -0.132 OA
ATOM      9  O   LIG    1        1.738  -6.176 -20.559  0.00  0.00    -0.117 OA
ENDBRANCH   6   7
BRANCH   1  10
ATOM     10  C   LIG    1       -0.373  -8.683 -21.552  0.00  0.00    +0.383 C 
ATOM     11  O   LIG    1        0.302  -9.661 -21.796  0.00  0.00    -0.415 OA
BRANCH  10  12
ATOM     12  C   LIG    1       -1.157  -8.609 -20.267  0.00  0.00    +0.113 C 
BRANCH  12  16
ATOM     13  C   LIG    1       -4.166 -11.641 -20.260  0.00  0.00    +0.009 A 
ATOM     14  C   LIG    1       -3.469 -11.356 -19.100  0.00  0.00    +0.007 A 
ATOM     15  C   LIG    1       -2.495 -10.376 -19.103  0.00  0.00    +0.014 A 
ATOM     16  C   LIG    1       -2.218  -9.680 -20.264  0.00  0.00    -0.085 A 
ATOM     17  C   LIG    1       -2.914  -9.965 -21.424  0.00  0.00    +0.015 A 
ATOM     18  C   LIG    1       -3.889 -10.945 -21.421  0.00  0.00    +0.008 A 
ENDBRANCH  12  16
ENDBRANCH  10  12
ENDBRANCH   1  10
BRANCH   4  19
ATOM     19  O   LIG    1       -0.592  -4.443 -25.206  0.00  0.00    -0.472 OA
ATOM     20  H   LIG    1        0.152  -3.829 -25.142  0.00  0.00    +0.403 HD
ENDBRANCH   4  19
BRANCH   5  21
ATOM     21  O   LIG    1        1.556  -4.670 -23.500  0.00  0.00    -0.473 OA
ATOM     22  H   LIG    1        1.264  -3.759 -23.349  0.00  0.00    +0.404 HD
ENDBRANCH   5  21
TORSDOF 6
ENDMDL
