MODEL 1
REMARK VINA RESULT:      -6.8      0.000      0.000
REMARK  Name = CHEMBL355017
REMARK                            x       y       z     vdW  Elec       q    Type
REMARK                         _______ _______ _______ _____ _____    ______ ____
ROOT
ATOM      1  C   LIG    1       -6.725  -1.451 -18.589  0.00  0.00    +0.137 A 
ATOM      2  C   LIG    1       -6.160  -2.212 -19.597  0.00  0.00    -0.147 A 
ATOM      3 CL   LIG    1       -6.823  -3.770 -19.983  0.00  0.00    -0.091 Cl
ATOM      4  C   LIG    1       -5.068  -1.734 -20.299  0.00  0.00    +0.069 A 
ATOM      5  C   LIG    1       -4.538  -0.491 -19.992  0.00  0.00    -0.008 A 
ATOM      6  C   LIG    1       -5.106   0.274 -18.978  0.00  0.00    +0.293 A 
ATOM      7  O   LIG    1       -4.589   1.494 -18.674  0.00  0.00    -0.619 OA
ATOM      8  C   LIG    1       -6.200  -0.211 -18.279  0.00  0.00    -0.193 A 
ENDROOT
BRANCH   8   9
ATOM      9  N   LIG    1       -6.807   0.600 -17.199  0.00  0.00    +0.073 N 
ATOM     10  O   LIG    1       -7.632   1.442 -17.468  0.00  0.00    -0.156 OA
ATOM     11  O   LIG    1       -6.478   0.421 -16.050  0.00  0.00    -0.253 OA
ENDBRANCH   8   9
BRANCH   5  12
ATOM     12  O   LIG    1       -3.463  -0.019 -20.680  0.00  0.00    -0.477 OA
ATOM     13  H   LIG    1       -2.652   0.031 -20.156  0.00  0.00    +0.371 HD
ENDBRANCH   5  12
TORSDOF 2
ENDMDL
MODEL 2
REMARK VINA RESULT:      -6.7      1.582      3.468
REMARK  Name = CHEMBL355017
REMARK                            x       y       z     vdW  Elec       q    Type
REMARK                         _______ _______ _______ _____ _____    ______ ____
ROOT
ATOM      1  C   LIG    1       -5.760  -2.255 -19.725  0.00  0.00    +0.137 A 
ATOM      2  C   LIG    1       -7.049  -2.449 -19.259  0.00  0.00    -0.147 A 
ATOM      3 CL   LIG    1       -7.900  -3.911 -19.648  0.00  0.00    -0.091 Cl
ATOM      4  C   LIG    1       -7.660  -1.480 -18.482  0.00  0.00    +0.069 A 
ATOM      5  C   LIG    1       -6.981  -0.313 -18.172  0.00  0.00    -0.008 A 
ATOM      6  C   LIG    1       -5.685  -0.118 -18.640  0.00  0.00    +0.293 A 
ATOM      7  O   LIG    1       -5.016   1.026 -18.337  0.00  0.00    -0.619 OA
ATOM      8  C   LIG    1       -5.079  -1.093 -19.417  0.00  0.00    -0.193 A 
ENDROOT
BRANCH   8   9
ATOM      9  N   LIG    1       -3.701  -0.889 -19.918  0.00  0.00    +0.073 N 
ATOM     10  O   LIG    1       -2.762  -1.337 -19.302  0.00  0.00    -0.156 OA
ATOM     11  O   LIG    1       -3.515  -0.274 -20.942  0.00  0.00    -0.253 OA
ENDBRANCH   8   9
BRANCH   5  12
ATOM     12  O   LIG    1       -7.580   0.641 -17.409  0.00  0.00    -0.477 OA
ATOM     13  H   LIG    1       -8.475   0.869 -17.697  0.00  0.00    +0.371 HD
ENDBRANCH   5  12
TORSDOF 2
ENDMDL
MODEL 3
REMARK VINA RESULT:      -5.4     11.189     12.246
REMARK  Name = CHEMBL355017
REMARK                            x       y       z     vdW  Elec       q    Type
REMARK                         _______ _______ _______ _____ _____    ______ ____
ROOT
ATOM      1  C   LIG    1       -3.270 -12.987 -19.351  0.00  0.00    +0.137 A 
ATOM      2  C   LIG    1       -3.518 -14.018 -18.462  0.00  0.00    -0.147 A 
ATOM      3 CL   LIG    1       -3.097 -15.648 -18.887  0.00  0.00    -0.091 Cl
ATOM      4  C   LIG    1       -4.100 -13.753 -17.235  0.00  0.00    +0.069 A 
ATOM      5  C   LIG    1       -4.436 -12.453 -16.895  0.00  0.00    -0.008 A 
ATOM      6  C   LIG    1       -4.187 -11.416 -17.789  0.00  0.00    +0.293 A 
ATOM      7  O   LIG    1       -4.516 -10.138 -17.458  0.00  0.00    -0.619 OA
ATOM      8  C   LIG    1       -3.604 -11.688 -19.016  0.00  0.00    -0.193 A 
ENDROOT
BRANCH   8   9
ATOM      9  N   LIG    1       -3.338 -10.587 -19.969  0.00  0.00    +0.073 N 
ATOM     10  O   LIG    1       -2.410  -9.836 -19.780  0.00  0.00    -0.156 OA
ATOM     11  O   LIG    1       -4.048 -10.439 -20.936  0.00  0.00    -0.253 OA
ENDBRANCH   8   9
BRANCH   5  12
ATOM     12  O   LIG    1       -5.010 -12.190 -15.690  0.00  0.00    -0.477 OA
ATOM     13  H   LIG    1       -5.151 -11.249 -15.519  0.00  0.00    +0.371 HD
ENDBRANCH   5  12
TORSDOF 2
ENDMDL
MODEL 4
REMARK VINA RESULT:      -5.3     10.371     11.154
REMARK  Name = CHEMBL355017
REMARK                            x       y       z     vdW  Elec       q    Type
REMARK                         _______ _______ _______ _____ _____    ______ ____
ROOT
ATOM      1  C   LIG    1       -4.115 -10.563 -18.853  0.00  0.00    +0.137 A 
ATOM      2  C   LIG    1       -3.517 -11.750 -19.239  0.00  0.00    -0.147 A 
ATOM      3 CL   LIG    1       -2.712 -11.857 -20.773  0.00  0.00    -0.091 Cl
ATOM      4  C   LIG    1       -3.558 -12.852 -18.402  0.00  0.00    +0.069 A 
ATOM      5  C   LIG    1       -4.199 -12.767 -17.178  0.00  0.00    -0.008 A 
ATOM      6  C   LIG    1       -4.801 -11.574 -16.790  0.00  0.00    +0.293 A 
ATOM      7  O   LIG    1       -5.432 -11.487 -15.588  0.00  0.00    -0.619 OA
ATOM      8  C   LIG    1       -4.756 -10.474 -17.632  0.00  0.00    -0.193 A 
ENDROOT
BRANCH   8   9
ATOM      9  N   LIG    1       -5.395  -9.203 -17.224  0.00  0.00    +0.073 N 
ATOM     10  O   LIG    1       -4.817  -8.154 -17.395  0.00  0.00    -0.156 OA
ATOM     11  O   LIG    1       -6.493  -9.213 -16.718  0.00  0.00    -0.253 OA
ENDBRANCH   8   9
BRANCH   5  12
ATOM     12  O   LIG    1       -4.242 -13.850 -16.354  0.00  0.00    -0.477 OA
ATOM     13  H   LIG    1       -4.467 -13.638 -15.438  0.00  0.00    +0.371 HD
ENDBRANCH   5  12
TORSDOF 2
ENDMDL
MODEL 5
REMARK VINA RESULT:      -4.9     10.366     11.509
REMARK  Name = CHEMBL355017
REMARK                            x       y       z     vdW  Elec       q    Type
REMARK                         _______ _______ _______ _____ _____    ______ ____
ROOT
ATOM      1  C   LIG    1       -4.719  -9.855 -18.367  0.00  0.00    +0.137 A 
ATOM      2  C   LIG    1       -5.512  -9.279 -17.390  0.00  0.00    -0.147 A 
ATOM      3 CL   LIG    1       -6.187  -7.699 -17.641  0.00  0.00    -0.091 Cl
ATOM      4  C   LIG    1       -5.769  -9.960 -16.213  0.00  0.00    +0.069 A 
ATOM      5  C   LIG    1       -5.231 -11.221 -16.012  0.00  0.00    -0.008 A 
ATOM      6  C   LIG    1       -4.434 -11.800 -16.995  0.00  0.00    +0.293 A 
ATOM      7  O   LIG    1       -3.904 -13.038 -16.801  0.00  0.00    -0.619 OA
ATOM      8  C   LIG    1       -4.180 -11.112 -18.171  0.00  0.00    -0.193 A 
ENDROOT
BRANCH   8   9
ATOM      9  N   LIG    1       -3.332 -11.725 -19.218  0.00  0.00    +0.073 N 
ATOM     10  O   LIG    1       -2.433 -11.087 -19.716  0.00  0.00    -0.156 OA
ATOM     11  O   LIG    1       -3.538 -12.861 -19.575  0.00  0.00    -0.253 OA
ENDBRANCH   8   9
BRANCH   5  12
ATOM     12  O   LIG    1       -5.482 -11.892 -14.856  0.00  0.00    -0.477 OA
ATOM     13  H   LIG    1       -6.226 -11.539 -14.350  0.00  0.00    +0.371 HD
ENDBRANCH   5  12
TORSDOF 2
ENDMDL
MODEL 6
REMARK VINA RESULT:      -4.6     13.592     13.907
REMARK  Name = CHEMBL355017
REMARK                            x       y       z     vdW  Elec       q    Type
REMARK                         _______ _______ _______ _____ _____    ______ ____
ROOT
ATOM      1  C   LIG    1        7.458  -2.391 -16.517  0.00  0.00    +0.137 A 
ATOM      2  C   LIG    1        7.835  -1.807 -17.714  0.00  0.00    -0.147 A 
ATOM      3 CL   LIG    1        8.292  -0.133 -17.755  0.00  0.00    -0.091 Cl
ATOM      4  C   LIG    1        7.848  -2.555 -18.878  0.00  0.00    +0.069 A 
ATOM      5  C   LIG    1        7.483  -3.891 -18.846  0.00  0.00    -0.008 A 
ATOM      6  C   LIG    1        7.104  -4.478 -17.643  0.00  0.00    +0.293 A 
ATOM      7  O   LIG    1        6.745  -5.790 -17.608  0.00  0.00    -0.619 OA
ATOM      8  C   LIG    1        7.093  -3.724 -16.480  0.00  0.00    -0.193 A 
ENDROOT
BRANCH   8   9
ATOM      9  N   LIG    1        6.690  -4.345 -15.199  0.00  0.00    +0.073 N 
ATOM     10  O   LIG    1        5.931  -3.764 -14.458  0.00  0.00    -0.156 OA
ATOM     11  O   LIG    1        7.119  -5.433 -14.892  0.00  0.00    -0.253 OA
ENDBRANCH   8   9
BRANCH   5  12
ATOM     12  O   LIG    1        7.494  -4.628 -19.990  0.00  0.00    -0.477 OA
ATOM     13  H   LIG    1        6.803  -5.303 -20.029  0.00  0.00    +0.371 HD
ENDBRANCH   5  12
TORSDOF 2
ENDMDL
MODEL 7
REMARK VINA RESULT:      -4.6     12.344     13.434
REMARK  Name = CHEMBL355017
REMARK                            x       y       z     vdW  Elec       q    Type
REMARK                         _______ _______ _______ _____ _____    ______ ____
ROOT
ATOM      1  C   LIG    1       -3.708 -11.760 -19.500  0.00  0.00    +0.137 A 
ATOM      2  C   LIG    1       -4.078 -11.121 -18.329  0.00  0.00    -0.147 A 
ATOM      3 CL   LIG    1       -4.354  -9.407 -18.327  0.00  0.00    -0.091 Cl
ATOM      4  C   LIG    1       -4.231 -11.846 -17.160  0.00  0.00    +0.069 A 
ATOM      5  C   LIG    1       -4.011 -13.214 -17.161  0.00  0.00    -0.008 A 
ATOM      6  C   LIG    1       -3.639 -13.856 -18.338  0.00  0.00    +0.293 A 
ATOM      7  O   LIG    1       -3.423 -15.199 -18.343  0.00  0.00    -0.619 OA
ATOM      8  C   LIG    1       -3.488 -13.124 -19.505  0.00  0.00    -0.193 A 
ENDROOT
BRANCH   8   9
ATOM      9  N   LIG    1       -3.092 -13.804 -20.759  0.00  0.00    +0.073 N 
ATOM     10  O   LIG    1       -1.922 -13.982 -21.006  0.00  0.00    -0.156 OA
ATOM     11  O   LIG    1       -3.938 -14.181 -21.537  0.00  0.00    -0.253 OA
ENDBRANCH   8   9
BRANCH   5  12
ATOM     12  O   LIG    1       -4.159 -13.929 -16.013  0.00  0.00    -0.477 OA
ATOM     13  H   LIG    1       -5.000 -14.402 -15.951  0.00  0.00    +0.371 HD
ENDBRANCH   5  12
TORSDOF 2
ENDMDL
MODEL 8
REMARK VINA RESULT:      -4.6      5.264      5.984
REMARK  Name = CHEMBL355017
REMARK                            x       y       z     vdW  Elec       q    Type
REMARK                         _______ _______ _______ _____ _____    ______ ____
ROOT
ATOM      1  C   LIG    1       -9.039  -5.579 -19.529  0.00  0.00    +0.137 A 
ATOM      2  C   LIG    1       -8.305  -5.330 -18.383  0.00  0.00    -0.147 A 
ATOM      3 CL   LIG    1       -8.654  -6.203 -16.923  0.00  0.00    -0.091 Cl
ATOM      4  C   LIG    1       -7.291  -4.388 -18.398  0.00  0.00    +0.069 A 
ATOM      5  C   LIG    1       -7.012  -3.691 -19.562  0.00  0.00    -0.008 A 
ATOM      6  C   LIG    1       -7.751  -3.941 -20.715  0.00  0.00    +0.293 A 
ATOM      7  O   LIG    1       -7.480  -3.259 -21.860  0.00  0.00    -0.619 OA
ATOM      8  C   LIG    1       -8.765  -4.886 -20.693  0.00  0.00    -0.193 A 
ENDROOT
BRANCH   8   9
ATOM      9  N   LIG    1       -9.553  -5.155 -21.916  0.00  0.00    +0.073 N 
ATOM     10  O   LIG    1      -10.440  -4.400 -22.240  0.00  0.00    -0.156 OA
ATOM     11  O   LIG    1       -9.311  -6.128 -22.591  0.00  0.00    -0.253 OA
ENDBRANCH   8   9
BRANCH   5  12
ATOM     12  O   LIG    1       -6.018  -2.763 -19.580  0.00  0.00    -0.477 OA
ATOM     13  H   LIG    1       -5.151  -3.112 -19.329  0.00  0.00    +0.371 HD
ENDBRANCH   5  12
TORSDOF 2
ENDMDL
MODEL 9
REMARK VINA RESULT:      -4.6     12.713     13.733
REMARK  Name = CHEMBL355017
REMARK                            x       y       z     vdW  Elec       q    Type
REMARK                         _______ _______ _______ _____ _____    ______ ____
ROOT
ATOM      1  C   LIG    1       -3.376 -13.028 -19.711  0.00  0.00    +0.137 A 
ATOM      2  C   LIG    1       -3.873 -11.759 -19.475  0.00  0.00    -0.147 A 
ATOM      3 CL   LIG    1       -3.870 -10.576 -20.745  0.00  0.00    -0.091 Cl
ATOM      4  C   LIG    1       -4.374 -11.431 -18.227  0.00  0.00    +0.069 A 
ATOM      5  C   LIG    1       -4.377 -12.374 -17.213  0.00  0.00    -0.008 A 
ATOM      6  C   LIG    1       -3.877 -13.651 -17.451  0.00  0.00    +0.293 A 
ATOM      7  O   LIG    1       -3.878 -14.580 -16.457  0.00  0.00    -0.619 OA
ATOM      8  C   LIG    1       -3.377 -13.973 -18.702  0.00  0.00    -0.193 A 
ENDROOT
BRANCH   8   9
ATOM      9  N   LIG    1       -2.843 -15.330 -18.959  0.00  0.00    +0.073 N 
ATOM     10  O   LIG    1       -3.452 -16.093 -19.673  0.00  0.00    -0.156 OA
ATOM     11  O   LIG    1       -1.800 -15.675 -18.456  0.00  0.00    -0.253 OA
ENDBRANCH   8   9
BRANCH   5  12
ATOM     12  O   LIG    1       -4.868 -12.054 -15.985  0.00  0.00    -0.477 OA
ATOM     13  H   LIG    1       -4.505 -12.588 -15.265  0.00  0.00    +0.371 HD
ENDBRANCH   5  12
TORSDOF 2
ENDMDL
