MODEL 1
REMARK VINA RESULT:      -6.4      0.000      0.000
REMARK  Name = CHEMBL1091982
REMARK                            x       y       z     vdW  Elec       q    Type
REMARK                         _______ _______ _______ _____ _____    ______ ____
ROOT
ATOM      1  C   LIG    1        6.049  -7.192 -19.332  0.00  0.00    -0.270 A 
ATOM      2  C   LIG    1        6.723  -6.140 -19.876  0.00  0.00    +0.102 A 
ATOM      3 CL   LIG    1        7.116  -6.137 -21.566  0.00  0.00    -0.033 Cl
ATOM      4  C   LIG    1        7.101  -5.056 -19.062  0.00  0.00    -0.216 A 
ATOM      5  C   LIG    1        7.803  -3.881 -19.439  0.00  0.00    +0.109 A 
ATOM      6  C   LIG    1        8.095  -2.919 -18.524  0.00  0.00    +0.019 A 
ATOM      7  C   LIG    1        7.715  -3.049 -17.183  0.00  0.00    +0.331 A 
ATOM      8  O   LIG    1        8.019  -2.074 -16.287  0.00  0.00    -0.620 OA
ATOM      9  C   LIG    1        7.031  -4.181 -16.779  0.00  0.00    -0.164 A 
ATOM     10  C   LIG    1        6.732  -5.161 -17.700  0.00  0.00    +0.013 A 
ATOM     11  S   LIG    1        5.888  -6.721 -17.619  0.00  0.00    +0.115 S 
ENDROOT
BRANCH   9  12
ATOM     12  N   LIG    1        6.621  -4.339 -15.365  0.00  0.00    +0.061 N 
ATOM     13  O   LIG    1        5.830  -3.568 -14.874  0.00  0.00    -0.159 OA
ATOM     14  O   LIG    1        7.078  -5.240 -14.700  0.00  0.00    -0.161 OA
ENDBRANCH   9  12
BRANCH   1  15
ATOM     15  C   LIG    1        5.566  -8.407 -19.995  0.00  0.00    +0.559 C 
ATOM     16  O   LIG    1        6.288  -9.382 -20.077  0.00  0.00    -0.477 OA
BRANCH  15  17
ATOM     17  O   LIG    1        4.321  -8.442 -20.514  0.00  0.00    -0.349 OA
BRANCH  17  18
ATOM     18  C   LIG    1        4.199  -8.231 -21.922  0.00  0.00    +0.475 C 
BRANCH  18  19
ATOM     19  O   LIG    1        3.227  -7.214 -22.167  0.00  0.00    -0.351 OA
BRANCH  19  20
ATOM     20  C   LIG    1        2.153  -7.189 -21.362  0.00  0.00    +0.429 C 
ATOM     21  O   LIG    1        2.037  -6.314 -20.537  0.00  0.00    -0.496 OA
BRANCH  20  22
ATOM     22  C   LIG    1        1.092  -8.251 -21.489  0.00  0.00    +0.223 C 
BRANCH  22  24
ATOM     23  C   LIG    1       -1.090  -7.693 -22.570  0.00  0.00    +0.031 C 
ATOM     24  C   LIG    1       -0.286  -7.625 -21.270  0.00  0.00    -0.008 C 
ATOM     25  C   LIG    1       -1.026  -8.391 -20.172  0.00  0.00    +0.045 C 
ENDBRANCH  22  24
BRANCH  22  26
ATOM     26  N   LIG    1        1.321  -9.294 -20.479  0.00  0.00    -0.811 NA
ATOM     27  H   LIG    1        1.315 -10.212 -20.899  0.00  0.00    +0.352 HD
ATOM     28  H   LIG    1        0.642  -9.234 -19.735  0.00  0.00    +0.352 HD
ENDBRANCH  22  26
ENDBRANCH  20  22
ENDBRANCH  19  20
ENDBRANCH  18  19
ENDBRANCH  17  18
ENDBRANCH  15  17
ENDBRANCH   1  15
BRANCH   6  29
ATOM     29  O   LIG    1        8.769  -1.805 -18.919  0.00  0.00    -0.478 OA
ATOM     30  H   LIG    1        9.619  -1.681 -18.475  0.00  0.00    +0.379 HD
ENDBRANCH   6  29
TORSDOF 10
ENDMDL
MODEL 2
REMARK VINA RESULT:      -6.1      6.231     10.745
REMARK  Name = CHEMBL1091982
REMARK                            x       y       z     vdW  Elec       q    Type
REMARK                         _______ _______ _______ _____ _____    ______ ____
ROOT
ATOM      1  C   LIG    1       -2.746 -11.261 -21.319  0.00  0.00    -0.270 A 
ATOM      2  C   LIG    1       -2.778 -12.370 -20.527  0.00  0.00    +0.102 A 
ATOM      3 CL   LIG    1       -2.061 -13.852 -21.074  0.00  0.00    -0.033 Cl
ATOM      4  C   LIG    1       -3.397 -12.310 -19.265  0.00  0.00    -0.216 A 
ATOM      5  C   LIG    1       -3.533 -13.349 -18.306  0.00  0.00    +0.109 A 
ATOM      6  C   LIG    1       -4.165 -13.127 -17.122  0.00  0.00    +0.019 A 
ATOM      7  C   LIG    1       -4.701 -11.874 -16.807  0.00  0.00    +0.331 A 
ATOM      8  O   LIG    1       -5.329 -11.677 -15.617  0.00  0.00    -0.620 OA
ATOM      9  C   LIG    1       -4.589 -10.838 -17.716  0.00  0.00    -0.164 A 
ATOM     10  C   LIG    1       -3.951 -11.055 -18.918  0.00  0.00    +0.013 A 
ATOM     11  S   LIG    1       -3.585 -10.038 -20.327  0.00  0.00    +0.115 S 
ENDROOT
BRANCH   9  12
ATOM     12  N   LIG    1       -5.151  -9.505 -17.402  0.00  0.00    +0.061 N 
ATOM     13  O   LIG    1       -6.251  -9.413 -16.908  0.00  0.00    -0.159 OA
ATOM     14  O   LIG    1       -4.511  -8.508 -17.639  0.00  0.00    -0.161 OA
ENDBRANCH   9  12
BRANCH   1  15
ATOM     15  C   LIG    1       -2.158 -11.110 -22.652  0.00  0.00    +0.559 C 
ATOM     16  O   LIG    1       -2.877 -10.970 -23.622  0.00  0.00    -0.477 OA
BRANCH  15  17
ATOM     17  O   LIG    1       -0.817 -11.125 -22.803  0.00  0.00    -0.349 OA
BRANCH  17  18
ATOM     18  C   LIG    1       -0.051 -10.354 -21.875  0.00  0.00    +0.475 C 
BRANCH  18  19
ATOM     19  O   LIG    1       -0.315  -8.965 -22.078  0.00  0.00    -0.351 OA
BRANCH  19  20
ATOM     20  C   LIG    1        0.237  -8.106 -21.207  0.00  0.00    +0.429 C 
ATOM     21  O   LIG    1       -0.298  -7.898 -20.144  0.00  0.00    -0.496 OA
BRANCH  20  22
ATOM     22  C   LIG    1        1.524  -7.403 -21.554  0.00  0.00    +0.223 C 
BRANCH  22  24
ATOM     23  C   LIG    1        3.407  -8.862 -22.306  0.00  0.00    +0.031 C 
ATOM     24  C   LIG    1        2.710  -8.250 -21.089  0.00  0.00    -0.008 C 
ATOM     25  C   LIG    1        3.698  -7.367 -20.325  0.00  0.00    +0.045 C 
ENDBRANCH  22  24
BRANCH  22  26
ATOM     26  N   LIG    1        1.563  -6.096 -20.884  0.00  0.00    -0.811 NA
ATOM     27  H   LIG    1        2.512  -5.826 -20.672  0.00  0.00    +0.352 HD
ATOM     28  H   LIG    1        0.995  -6.099 -20.049  0.00  0.00    +0.352 HD
ENDBRANCH  22  26
ENDBRANCH  20  22
ENDBRANCH  19  20
ENDBRANCH  18  19
ENDBRANCH  17  18
ENDBRANCH  15  17
ENDBRANCH   1  15
BRANCH   6  29
ATOM     29  O   LIG    1       -4.277 -14.144 -16.226  0.00  0.00    -0.478 OA
ATOM     30  H   LIG    1       -4.270 -15.024 -16.627  0.00  0.00    +0.379 HD
ENDBRANCH   6  29
TORSDOF 10
ENDMDL
MODEL 3
REMARK VINA RESULT:      -6.0      1.646      2.627
REMARK  Name = CHEMBL1091982
REMARK                            x       y       z     vdW  Elec       q    Type
REMARK                         _______ _______ _______ _____ _____    ______ ____
ROOT
ATOM      1  C   LIG    1        6.887  -7.015 -20.310  0.00  0.00    -0.270 A 
ATOM      2  C   LIG    1        6.650  -7.086 -18.970  0.00  0.00    +0.102 A 
ATOM      3 CL   LIG    1        6.080  -8.565 -18.263  0.00  0.00    -0.033 Cl
ATOM      4  C   LIG    1        6.866  -5.955 -18.161  0.00  0.00    -0.216 A 
ATOM      5  C   LIG    1        6.677  -5.832 -16.759  0.00  0.00    +0.109 A 
ATOM      6  C   LIG    1        6.934  -4.659 -16.121  0.00  0.00    +0.019 A 
ATOM      7  C   LIG    1        7.392  -3.535 -16.818  0.00  0.00    +0.331 A 
ATOM      8  O   LIG    1        7.641  -2.374 -16.158  0.00  0.00    -0.620 OA
ATOM      9  C   LIG    1        7.588  -3.617 -18.185  0.00  0.00    -0.164 A 
ATOM     10  C   LIG    1        7.329  -4.803 -18.839  0.00  0.00    +0.013 A 
ATOM     11  S   LIG    1        7.447  -5.336 -20.529  0.00  0.00    +0.115 S 
ENDROOT
BRANCH   9  12
ATOM     12  N   LIG    1        8.071  -2.440 -18.942  0.00  0.00    +0.061 N 
ATOM     13  O   LIG    1        7.279  -1.665 -19.425  0.00  0.00    -0.159 OA
ATOM     14  O   LIG    1        9.257  -2.253 -19.076  0.00  0.00    -0.161 OA
ENDBRANCH   9  12
BRANCH   1  15
ATOM     15  C   LIG    1        6.728  -8.065 -21.321  0.00  0.00    +0.559 C 
ATOM     16  O   LIG    1        7.650  -8.337 -22.065  0.00  0.00    -0.477 OA
BRANCH  15  17
ATOM     17  O   LIG    1        5.558  -8.729 -21.424  0.00  0.00    -0.349 OA
BRANCH  17  18
ATOM     18  C   LIG    1        4.402  -7.958 -21.755  0.00  0.00    +0.475 C 
BRANCH  18  19
ATOM     19  O   LIG    1        3.492  -7.968 -20.653  0.00  0.00    -0.351 OA
BRANCH  19  20
ATOM     20  C   LIG    1        2.280  -7.431 -20.859  0.00  0.00    +0.429 C 
ATOM     21  O   LIG    1        2.065  -6.285 -20.543  0.00  0.00    -0.496 OA
BRANCH  20  22
ATOM     22  C   LIG    1        1.187  -8.257 -21.487  0.00  0.00    +0.223 C 
BRANCH  22  24
ATOM     23  C   LIG    1       -0.972  -7.566 -22.538  0.00  0.00    +0.031 C 
ATOM     24  C   LIG    1       -0.166  -7.588 -21.237  0.00  0.00    -0.008 C 
ATOM     25  C   LIG    1       -0.935  -8.376 -20.174  0.00  0.00    +0.045 C 
ENDBRANCH  22  24
BRANCH  22  26
ATOM     26  N   LIG    1        1.186  -9.600 -20.892  0.00  0.00    -0.811 NA
ATOM     27  H   LIG    1        1.673  -9.605 -20.008  0.00  0.00    +0.352 HD
ATOM     28  H   LIG    1        1.584 -10.277 -21.526  0.00  0.00    +0.352 HD
ENDBRANCH  22  26
ENDBRANCH  20  22
ENDBRANCH  19  20
ENDBRANCH  18  19
ENDBRANCH  17  18
ENDBRANCH  15  17
ENDBRANCH   1  15
BRANCH   6  29
ATOM     29  O   LIG    1        6.742  -4.575 -14.777  0.00  0.00    -0.478 OA
ATOM     30  H   LIG    1        7.516  -4.822 -14.253  0.00  0.00    +0.379 HD
ENDBRANCH   6  29
TORSDOF 10
ENDMDL
MODEL 4
REMARK VINA RESULT:      -5.9     12.965     15.834
REMARK  Name = CHEMBL1091982
REMARK                            x       y       z     vdW  Elec       q    Type
REMARK                         _______ _______ _______ _____ _____    ______ ____
ROOT
ATOM      1  C   LIG    1       -9.294  -6.874 -24.561  0.00  0.00    -0.270 A 
ATOM      2  C   LIG    1       -8.169  -7.405 -25.115  0.00  0.00    +0.102 A 
ATOM      3 CL   LIG    1       -7.035  -6.379 -25.937  0.00  0.00    -0.033 Cl
ATOM      4  C   LIG    1       -7.928  -8.788 -25.021  0.00  0.00    -0.216 A 
ATOM      5  C   LIG    1       -6.824  -9.522 -25.531  0.00  0.00    +0.109 A 
ATOM      6  C   LIG    1       -6.740 -10.867 -25.354  0.00  0.00    +0.019 A 
ATOM      7  C   LIG    1       -7.731 -11.576 -24.667  0.00  0.00    +0.331 A 
ATOM      8  O   LIG    1       -7.625 -12.921 -24.504  0.00  0.00    -0.620 OA
ATOM      9  C   LIG    1       -8.822 -10.895 -24.157  0.00  0.00    -0.164 A 
ATOM     10  C   LIG    1       -8.915  -9.531 -24.332  0.00  0.00    +0.013 A 
ATOM     11  S   LIG    1      -10.100  -8.299 -23.851  0.00  0.00    +0.115 S 
ENDROOT
BRANCH   9  12
ATOM     12  N   LIG    1       -9.883 -11.626 -23.427  0.00  0.00    +0.061 N 
ATOM     13  O   LIG    1       -9.779 -11.815 -22.238  0.00  0.00    -0.159 OA
ATOM     14  O   LIG    1      -10.854 -12.033 -24.021  0.00  0.00    -0.161 OA
ENDBRANCH   9  12
BRANCH   1  15
ATOM     15  C   LIG    1       -9.731  -5.475 -24.545  0.00  0.00    +0.559 C 
ATOM     16  O   LIG    1      -10.481  -5.062 -25.408  0.00  0.00    -0.477 OA
BRANCH  15  17
ATOM     17  O   LIG    1       -9.300  -4.646 -23.572  0.00  0.00    -0.349 OA
BRANCH  17  18
ATOM     18  C   LIG    1       -9.661  -4.978 -22.230  0.00  0.00    +0.475 C 
BRANCH  18  19
ATOM     19  O   LIG    1       -8.622  -4.563 -21.341  0.00  0.00    -0.351 OA
BRANCH  19  20
ATOM     20  C   LIG    1       -8.805  -4.807 -20.034  0.00  0.00    +0.429 C 
ATOM     21  O   LIG    1       -9.681  -5.558 -19.677  0.00  0.00    -0.496 OA
BRANCH  20  22
ATOM     22  C   LIG    1       -7.916  -4.145 -19.013  0.00  0.00    +0.223 C 
BRANCH  22  24
ATOM     23  C   LIG    1       -7.638  -1.697 -18.601  0.00  0.00    +0.031 C 
ATOM     24  C   LIG    1       -7.367  -2.837 -19.585  0.00  0.00    -0.008 C 
ATOM     25  C   LIG    1       -5.859  -2.971 -19.808  0.00  0.00    +0.045 C 
ENDBRANCH  22  24
BRANCH  22  26
ATOM     26  N   LIG    1       -6.800  -5.042 -18.682  0.00  0.00    -0.811 NA
ATOM     27  H   LIG    1       -5.925  -4.673 -19.025  0.00  0.00    +0.352 HD
ATOM     28  H   LIG    1       -6.963  -5.971 -19.040  0.00  0.00    +0.352 HD
ENDBRANCH  22  26
ENDBRANCH  20  22
ENDBRANCH  19  20
ENDBRANCH  18  19
ENDBRANCH  17  18
ENDBRANCH  15  17
ENDBRANCH   1  15
BRANCH   6  29
ATOM     29  O   LIG    1       -5.668 -11.539 -25.855  0.00  0.00    -0.478 OA
ATOM     30  H   LIG    1       -5.662 -12.483 -25.645  0.00  0.00    +0.379 HD
ENDBRANCH   6  29
TORSDOF 10
ENDMDL
MODEL 5
REMARK VINA RESULT:      -5.8     10.504     13.216
REMARK  Name = CHEMBL1091982
REMARK                            x       y       z     vdW  Elec       q    Type
REMARK                         _______ _______ _______ _____ _____    ______ ____
ROOT
ATOM      1  C   LIG    1       -2.463 -14.976 -21.157  0.00  0.00    -0.270 A 
ATOM      2  C   LIG    1       -2.962 -15.127 -19.898  0.00  0.00    +0.102 A 
ATOM      3 CL   LIG    1       -3.143 -16.714 -19.219  0.00  0.00    -0.033 Cl
ATOM      4  C   LIG    1       -3.330 -13.994 -19.150  0.00  0.00    -0.216 A 
ATOM      5  C   LIG    1       -3.864 -13.948 -17.835  0.00  0.00    +0.109 A 
ATOM      6  C   LIG    1       -4.171 -12.760 -17.248  0.00  0.00    +0.019 A 
ATOM      7  C   LIG    1       -3.973 -11.546 -17.914  0.00  0.00    +0.331 A 
ATOM      8  O   LIG    1       -4.289 -10.372 -17.307  0.00  0.00    -0.620 OA
ATOM      9  C   LIG    1       -3.455 -11.551 -19.197  0.00  0.00    -0.164 A 
ATOM     10  C   LIG    1       -3.142 -12.751 -19.799  0.00  0.00    +0.013 A 
ATOM     11  S   LIG    1       -2.469 -13.205 -21.378  0.00  0.00    +0.115 S 
ENDROOT
BRANCH   9  12
ATOM     12  N   LIG    1       -3.239 -10.277 -19.919  0.00  0.00    +0.061 N 
ATOM     13  O   LIG    1       -3.972  -9.965 -20.828  0.00  0.00    -0.159 OA
ATOM     14  O   LIG    1       -2.329  -9.548 -19.600  0.00  0.00    -0.161 OA
ENDBRANCH   9  12
BRANCH   1  15
ATOM     15  C   LIG    1       -2.023 -16.012 -22.095  0.00  0.00    +0.559 C 
ATOM     16  O   LIG    1       -2.642 -16.204 -23.124  0.00  0.00    -0.477 OA
BRANCH  15  17
ATOM     17  O   LIG    1       -0.930 -16.752 -21.817  0.00  0.00    -0.349 OA
BRANCH  17  18
ATOM     18  C   LIG    1       -0.938 -18.112 -22.256  0.00  0.00    +0.475 C 
BRANCH  18  19
ATOM     19  O   LIG    1       -1.675 -18.908 -21.326  0.00  0.00    -0.351 OA
BRANCH  19  20
ATOM     20  C   LIG    1       -2.673 -19.657 -21.822  0.00  0.00    +0.429 C 
ATOM     21  O   LIG    1       -2.439 -20.756 -22.267  0.00  0.00    -0.496 OA
BRANCH  20  22
ATOM     22  C   LIG    1       -4.084 -19.129 -21.821  0.00  0.00    +0.223 C 
BRANCH  22  24
ATOM     23  C   LIG    1       -5.103 -20.198 -19.806  0.00  0.00    +0.031 C 
ATOM     24  C   LIG    1       -5.038 -20.221 -21.335  0.00  0.00    -0.008 C 
ATOM     25  C   LIG    1       -6.434 -19.972 -21.909  0.00  0.00    +0.045 C 
ENDBRANCH  22  24
BRANCH  22  26
ATOM     26  N   LIG    1       -4.456 -18.726 -23.184  0.00  0.00    -0.811 NA
ATOM     27  H   LIG    1       -4.833 -17.790 -23.195  0.00  0.00    +0.352 HD
ATOM     28  H   LIG    1       -5.107 -19.381 -23.591  0.00  0.00    +0.352 HD
ENDBRANCH  22  26
ENDBRANCH  20  22
ENDBRANCH  19  20
ENDBRANCH  18  19
ENDBRANCH  17  18
ENDBRANCH  15  17
ENDBRANCH   1  15
BRANCH   6  29
ATOM     29  O   LIG    1       -4.681 -12.753 -15.987  0.00  0.00    -0.478 OA
ATOM     30  H   LIG    1       -4.027 -12.927 -15.297  0.00  0.00    +0.379 HD
ENDBRANCH   6  29
TORSDOF 10
ENDMDL
MODEL 6
REMARK VINA RESULT:      -5.7     10.513     13.127
REMARK  Name = CHEMBL1091982
REMARK                            x       y       z     vdW  Elec       q    Type
REMARK                         _______ _______ _______ _____ _____    ______ ____
ROOT
ATOM      1  C   LIG    1       -2.295 -14.826 -21.102  0.00  0.00    -0.270 A 
ATOM      2  C   LIG    1       -2.808 -15.000 -19.852  0.00  0.00    +0.102 A 
ATOM      3 CL   LIG    1       -2.912 -16.592 -19.168  0.00  0.00    -0.033 Cl
ATOM      4  C   LIG    1       -3.254 -13.886 -19.118  0.00  0.00    -0.216 A 
ATOM      5  C   LIG    1       -3.815 -13.864 -17.813  0.00  0.00    +0.109 A 
ATOM      6  C   LIG    1       -4.200 -12.693 -17.239  0.00  0.00    +0.019 A 
ATOM      7  C   LIG    1       -4.059 -11.473 -17.908  0.00  0.00    +0.331 A 
ATOM      8  O   LIG    1       -4.452 -10.316 -17.314  0.00  0.00    -0.620 OA
ATOM      9  C   LIG    1       -3.517 -11.455 -19.181  0.00  0.00    -0.164 A 
ATOM     10  C   LIG    1       -3.124 -12.637 -19.770  0.00  0.00    +0.013 A 
ATOM     11  S   LIG    1       -2.397 -13.060 -21.333  0.00  0.00    +0.115 S 
ENDROOT
BRANCH   9  12
ATOM     12  N   LIG    1       -3.359 -10.174 -19.906  0.00  0.00    +0.061 N 
ATOM     13  O   LIG    1       -2.523  -9.376 -19.551  0.00  0.00    -0.159 OA
ATOM     14  O   LIG    1       -4.067  -9.925 -20.854  0.00  0.00    -0.161 OA
ENDBRANCH   9  12
BRANCH   1  15
ATOM     15  C   LIG    1       -1.779 -15.840 -22.026  0.00  0.00    +0.559 C 
ATOM     16  O   LIG    1       -0.620 -15.798 -22.391  0.00  0.00    -0.477 OA
BRANCH  15  17
ATOM     17  O   LIG    1       -2.590 -16.822 -22.471  0.00  0.00    -0.349 OA
BRANCH  17  18
ATOM     18  C   LIG    1       -3.850 -16.425 -23.017  0.00  0.00    +0.475 C 
BRANCH  18  19
ATOM     19  O   LIG    1       -4.905 -16.938 -22.202  0.00  0.00    -0.351 OA
BRANCH  19  20
ATOM     20  C   LIG    1       -5.597 -17.981 -22.686  0.00  0.00    +0.429 C 
ATOM     21  O   LIG    1       -6.500 -17.796 -23.468  0.00  0.00    -0.496 OA
BRANCH  20  22
ATOM     22  C   LIG    1       -5.248 -19.382 -22.257  0.00  0.00    +0.223 C 
BRANCH  22  24
ATOM     23  C   LIG    1       -5.315 -20.267 -19.921  0.00  0.00    +0.031 C 
ATOM     24  C   LIG    1       -4.570 -19.342 -20.886  0.00  0.00    -0.008 C 
ATOM     25  C   LIG    1       -3.119 -19.807 -21.020  0.00  0.00    +0.045 C 
ENDBRANCH  22  24
BRANCH  22  26
ATOM     26  N   LIG    1       -4.332 -19.980 -23.238  0.00  0.00    -0.811 NA
ATOM     27  H   LIG    1       -4.843 -20.441 -23.976  0.00  0.00    +0.352 HD
ATOM     28  H   LIG    1       -3.689 -20.618 -22.792  0.00  0.00    +0.352 HD
ENDBRANCH  22  26
ENDBRANCH  20  22
ENDBRANCH  19  20
ENDBRANCH  18  19
ENDBRANCH  17  18
ENDBRANCH  15  17
ENDBRANCH   1  15
BRANCH   6  29
ATOM     29  O   LIG    1       -4.734 -12.709 -15.988  0.00  0.00    -0.478 OA
ATOM     30  H   LIG    1       -5.698 -12.634 -15.971  0.00  0.00    +0.379 HD
ENDBRANCH   6  29
TORSDOF 10
ENDMDL
MODEL 7
REMARK VINA RESULT:      -5.6      5.955     10.848
REMARK  Name = CHEMBL1091982
REMARK                            x       y       z     vdW  Elec       q    Type
REMARK                         _______ _______ _______ _____ _____    ______ ____
ROOT
ATOM      1  C   LIG    1       -2.265 -10.072 -20.925  0.00  0.00    -0.270 A 
ATOM      2  C   LIG    1       -2.802  -9.996 -19.675  0.00  0.00    +0.102 A 
ATOM      3 CL   LIG    1       -3.003  -8.452 -18.907  0.00  0.00    -0.033 Cl
ATOM      4  C   LIG    1       -3.190 -11.171 -19.007  0.00  0.00    -0.216 A 
ATOM      5  C   LIG    1       -3.761 -11.296 -17.713  0.00  0.00    +0.109 A 
ATOM      6  C   LIG    1       -4.083 -12.516 -17.207  0.00  0.00    +0.019 A 
ATOM      7  C   LIG    1       -3.866 -13.688 -17.939  0.00  0.00    +0.331 A 
ATOM      8  O   LIG    1       -4.196 -14.897 -17.411  0.00  0.00    -0.620 OA
ATOM      9  C   LIG    1       -3.311 -13.607 -19.203  0.00  0.00    -0.164 A 
ATOM     10  C   LIG    1       -2.982 -12.374 -19.723  0.00  0.00    +0.013 A 
ATOM     11  S   LIG    1       -2.279 -11.825 -21.258  0.00  0.00    +0.115 S 
ENDROOT
BRANCH   9  12
ATOM     12  N   LIG    1       -3.073 -14.836 -19.994  0.00  0.00    +0.061 N 
ATOM     13  O   LIG    1       -2.097 -15.515 -19.775  0.00  0.00    -0.159 OA
ATOM     14  O   LIG    1       -3.853 -15.160 -20.857  0.00  0.00    -0.161 OA
ENDBRANCH   9  12
BRANCH   1  15
ATOM     15  C   LIG    1       -1.801  -8.982 -21.787  0.00  0.00    +0.559 C 
ATOM     16  O   LIG    1       -2.359  -8.762 -22.845  0.00  0.00    -0.477 OA
BRANCH  15  17
ATOM     17  O   LIG    1       -0.753  -8.222 -21.406  0.00  0.00    -0.349 OA
BRANCH  17  18
ATOM     18  C   LIG    1       -0.373  -7.157 -22.279  0.00  0.00    +0.475 C 
BRANCH  18  19
ATOM     19  O   LIG    1        1.035  -7.216 -22.516  0.00  0.00    -0.351 OA
BRANCH  19  20
ATOM     20  C   LIG    1        1.839  -7.062 -21.453  0.00  0.00    +0.429 C 
ATOM     21  O   LIG    1        1.641  -6.163 -20.671  0.00  0.00    -0.496 OA
BRANCH  20  22
ATOM     22  C   LIG    1        2.987  -8.013 -21.234  0.00  0.00    +0.223 C 
BRANCH  22  24
ATOM     23  C   LIG    1        2.066 -10.330 -21.383  0.00  0.00    +0.031 C 
ATOM     24  C   LIG    1        2.504  -9.220 -20.426  0.00  0.00    -0.008 C 
ATOM     25  C   LIG    1        3.642  -9.729 -19.540  0.00  0.00    +0.045 C 
ENDBRANCH  22  24
BRANCH  22  26
ATOM     26  N   LIG    1        4.056  -7.327 -20.495  0.00  0.00    -0.811 NA
ATOM     27  H   LIG    1        4.615  -7.985 -19.972  0.00  0.00    +0.352 HD
ATOM     28  H   LIG    1        3.678  -6.613 -19.890  0.00  0.00    +0.352 HD
ENDBRANCH  22  26
ENDBRANCH  20  22
ENDBRANCH  19  20
ENDBRANCH  18  19
ENDBRANCH  17  18
ENDBRANCH  15  17
ENDBRANCH   1  15
BRANCH   6  29
ATOM     29  O   LIG    1       -4.628 -12.599 -15.963  0.00  0.00    -0.478 OA
ATOM     30  H   LIG    1       -4.509 -11.802 -15.428  0.00  0.00    +0.379 HD
ENDBRANCH   6  29
TORSDOF 10
ENDMDL
MODEL 8
REMARK VINA RESULT:      -5.5     10.502     12.289
REMARK  Name = CHEMBL1091982
REMARK                            x       y       z     vdW  Elec       q    Type
REMARK                         _______ _______ _______ _____ _____    ______ ____
ROOT
ATOM      1  C   LIG    1       -2.386 -14.949 -21.071  0.00  0.00    -0.270 A 
ATOM      2  C   LIG    1       -2.909 -15.086 -19.820  0.00  0.00    +0.102 A 
ATOM      3 CL   LIG    1       -3.078 -16.662 -19.114  0.00  0.00    -0.033 Cl
ATOM      4  C   LIG    1       -3.312 -13.945 -19.102  0.00  0.00    -0.216 A 
ATOM      5  C   LIG    1       -3.875 -13.883 -17.799  0.00  0.00    +0.109 A 
ATOM      6  C   LIG    1       -4.214 -12.690 -17.242  0.00  0.00    +0.019 A 
ATOM      7  C   LIG    1       -4.022 -11.485 -17.927  0.00  0.00    +0.331 A 
ATOM      8  O   LIG    1       -4.370 -10.306 -17.349  0.00  0.00    -0.620 OA
ATOM      9  C   LIG    1       -3.477 -11.506 -19.198  0.00  0.00    -0.164 A 
ATOM     10  C   LIG    1       -3.131 -12.711 -19.770  0.00  0.00    +0.013 A 
ATOM     11  S   LIG    1       -2.417 -13.184 -21.326  0.00  0.00    +0.115 S 
ENDROOT
BRANCH   9  12
ATOM     12  N   LIG    1       -3.266 -10.242 -19.940  0.00  0.00    +0.061 N 
ATOM     13  O   LIG    1       -3.967  -9.973 -20.888  0.00  0.00    -0.159 OA
ATOM     14  O   LIG    1       -2.394  -9.479 -19.599  0.00  0.00    -0.161 OA
ENDBRANCH   9  12
BRANCH   1  15
ATOM     15  C   LIG    1       -1.909 -15.996 -21.979  0.00  0.00    +0.559 C 
ATOM     16  O   LIG    1       -0.737 -16.318 -21.974  0.00  0.00    -0.477 OA
BRANCH  15  17
ATOM     17  O   LIG    1       -2.772 -16.602 -22.821  0.00  0.00    -0.349 OA
BRANCH  17  18
ATOM     18  C   LIG    1       -3.343 -15.798 -23.855  0.00  0.00    +0.475 C 
BRANCH  18  19
ATOM     19  O   LIG    1       -4.680 -15.444 -23.499  0.00  0.00    -0.351 OA
BRANCH  19  20
ATOM     20  C   LIG    1       -5.069 -14.186 -23.762  0.00  0.00    +0.429 C 
ATOM     21  O   LIG    1       -4.604 -13.596 -24.708  0.00  0.00    -0.496 OA
BRANCH  20  22
ATOM     22  C   LIG    1       -6.087 -13.512 -22.879  0.00  0.00    +0.223 C 
BRANCH  22  24
ATOM     23  C   LIG    1       -7.887 -14.771 -24.068  0.00  0.00    +0.031 C 
ATOM     24  C   LIG    1       -7.412 -13.383 -23.633  0.00  0.00    -0.008 C 
ATOM     25  C   LIG    1       -8.460 -12.750 -22.716  0.00  0.00    +0.045 C 
ENDBRANCH  22  24
BRANCH  22  26
ATOM     26  N   LIG    1       -5.603 -12.175 -22.508  0.00  0.00    -0.811 NA
ATOM     27  H   LIG    1       -4.928 -11.835 -23.178  0.00  0.00    +0.352 HD
ATOM     28  H   LIG    1       -5.217 -12.175 -21.576  0.00  0.00    +0.352 HD
ENDBRANCH  22  26
ENDBRANCH  20  22
ENDBRANCH  19  20
ENDBRANCH  18  19
ENDBRANCH  17  18
ENDBRANCH  15  17
ENDBRANCH   1  15
BRANCH   6  29
ATOM     29  O   LIG    1       -4.751 -12.667 -15.993  0.00  0.00    -0.478 OA
ATOM     30  H   LIG    1       -4.297 -13.240 -15.359  0.00  0.00    +0.379 HD
ENDBRANCH   6  29
TORSDOF 10
ENDMDL
MODEL 9
REMARK VINA RESULT:      -5.3      5.410      8.032
REMARK  Name = CHEMBL1091982
REMARK                            x       y       z     vdW  Elec       q    Type
REMARK                         _______ _______ _______ _____ _____    ______ ____
ROOT
ATOM      1  C   LIG    1       -1.032  -9.519 -21.907  0.00  0.00    -0.270 A 
ATOM      2  C   LIG    1       -0.941  -8.355 -22.609  0.00  0.00    +0.102 A 
ATOM      3 CL   LIG    1       -2.323  -7.743 -23.461  0.00  0.00    -0.033 Cl
ATOM      4  C   LIG    1        0.277  -7.651 -22.642  0.00  0.00    -0.216 A 
ATOM      5  C   LIG    1        0.567  -6.434 -23.313  0.00  0.00    +0.109 A 
ATOM      6  C   LIG    1        1.806  -5.878 -23.245  0.00  0.00    +0.019 A 
ATOM      7  C   LIG    1        2.836  -6.482 -22.517  0.00  0.00    +0.331 A 
ATOM      8  O   LIG    1        4.067  -5.908 -22.466  0.00  0.00    -0.620 OA
ATOM      9  C   LIG    1        2.591  -7.670 -21.851  0.00  0.00    -0.164 A 
ATOM     10  C   LIG    1        1.338  -8.239 -21.914  0.00  0.00    +0.013 A 
ATOM     11  S   LIG    1        0.607  -9.704 -21.227  0.00  0.00    +0.115 S 
ENDROOT
BRANCH   9  12
ATOM     12  N   LIG    1        3.669  -8.326 -21.075  0.00  0.00    +0.061 N 
ATOM     13  O   LIG    1        3.865  -8.009 -19.925  0.00  0.00    -0.159 OA
ATOM     14  O   LIG    1        4.352  -9.179 -21.592  0.00  0.00    -0.161 OA
ENDBRANCH   9  12
BRANCH   1  15
ATOM     15  C   LIG    1       -2.193 -10.398 -21.743  0.00  0.00    +0.559 C 
ATOM     16  O   LIG    1       -2.221 -11.479 -22.299  0.00  0.00    -0.477 OA
BRANCH  15  17
ATOM     17  O   LIG    1       -3.231 -10.007 -20.975  0.00  0.00    -0.349 OA
BRANCH  17  18
ATOM     18  C   LIG    1       -2.966  -9.794 -19.587  0.00  0.00    +0.475 C 
BRANCH  18  19
ATOM     19  O   LIG    1       -2.842 -11.055 -18.927  0.00  0.00    -0.351 OA
BRANCH  19  20
ATOM     20  C   LIG    1       -3.979 -11.674 -18.574  0.00  0.00    +0.429 C 
ATOM     21  O   LIG    1       -4.661 -11.224 -17.685  0.00  0.00    -0.496 OA
BRANCH  20  22
ATOM     22  C   LIG    1       -4.406 -12.930 -19.289  0.00  0.00    +0.223 C 
BRANCH  22  24
ATOM     23  C   LIG    1       -3.277 -14.851 -18.159  0.00  0.00    +0.031 C 
ATOM     24  C   LIG    1       -3.228 -13.903 -19.360  0.00  0.00    -0.008 C 
ATOM     25  C   LIG    1       -3.314 -14.715 -20.654  0.00  0.00    +0.045 C 
ENDBRANCH  22  24
BRANCH  22  26
ATOM     26  N   LIG    1       -4.845 -12.593 -20.650  0.00  0.00    -0.811 NA
ATOM     27  H   LIG    1       -4.754 -11.603 -20.825  0.00  0.00    +0.352 HD
ATOM     28  H   LIG    1       -5.792 -12.902 -20.813  0.00  0.00    +0.352 HD
ENDBRANCH  22  26
ENDBRANCH  20  22
ENDBRANCH  19  20
ENDBRANCH  18  19
ENDBRANCH  17  18
ENDBRANCH  15  17
ENDBRANCH   1  15
BRANCH   6  29
ATOM     29  O   LIG    1        2.049  -4.711 -23.900  0.00  0.00    -0.478 OA
ATOM     30  H   LIG    1        1.253  -4.204 -24.109  0.00  0.00    +0.379 HD
ENDBRANCH   6  29
TORSDOF 10
ENDMDL
