MODEL 1
REMARK VINA RESULT:      -7.1      0.000      0.000
REMARK  Name = CHEMBL1089536
REMARK                            x       y       z     vdW  Elec       q    Type
REMARK                         _______ _______ _______ _____ _____    ______ ____
ROOT
ATOM      1  C   LIG    1       -2.520 -14.952 -20.784  0.00  0.00    -0.173 A 
ATOM      2  C   LIG    1       -3.022 -15.025 -19.520  0.00  0.00    +0.027 A 
ATOM      3 CL   LIG    1       -3.156 -16.563 -18.725  0.00  0.00    +0.004 Cl
ATOM      4  C   LIG    1       -3.433 -13.853 -18.860  0.00  0.00    -0.083 A 
ATOM      5  C   LIG    1       -3.976 -13.727 -17.554  0.00  0.00    +0.135 A 
ATOM      6  C   LIG    1       -4.326 -12.509 -17.059  0.00  0.00    +0.095 A 
ATOM      7  C   LIG    1       -4.164 -11.342 -17.812  0.00  0.00    +0.192 A 
ATOM      8  C   LIG    1       -3.637 -11.425 -19.089  0.00  0.00    -0.013 A 
ATOM      9  C   LIG    1       -3.281 -12.656 -19.598  0.00  0.00    -0.091 A 
ATOM     10  S   LIG    1       -2.584 -13.204 -21.136  0.00  0.00    +0.216 S 
ENDROOT
BRANCH   8  11
ATOM     11  N   LIG    1       -3.459 -10.202 -19.903  0.00  0.00    +0.023 N 
ATOM     12  O   LIG    1       -2.722  -9.323 -19.519  0.00  0.00    -0.110 OA
ATOM     13  O   LIG    1       -4.049 -10.082 -20.951  0.00  0.00    -0.125 OA
ENDBRANCH   8  11
BRANCH   1  14
ATOM     14  C   LIG    1       -2.041 -16.039 -21.641  0.00  0.00    +0.549 C 
ATOM     15  O   LIG    1       -0.949 -15.959 -22.171  0.00  0.00    -0.460 OA
BRANCH  14  16
ATOM     16  O   LIG    1       -2.811 -17.128 -21.843  0.00  0.00    -0.336 OA
BRANCH  16  17
ATOM     17  C   LIG    1       -4.178 -16.900 -22.192  0.00  0.00    +0.281 C 
BRANCH  17  21
ATOM     18  C   LIG    1       -6.460 -20.419 -21.382  0.00  0.00    +0.022 A 
ATOM     19  C   LIG    1       -5.460 -20.028 -20.511  0.00  0.00    +0.005 A 
ATOM     20  C   LIG    1       -4.721 -18.890 -20.774  0.00  0.00    +0.032 A 
ATOM     21  C   LIG    1       -4.982 -18.142 -21.907  0.00  0.00    -0.104 A 
ATOM     22  C   LIG    1       -5.983 -18.533 -22.778  0.00  0.00    +0.033 A 
ATOM     23  C   LIG    1       -6.722 -19.671 -22.515  0.00  0.00    +0.005 A 
ENDBRANCH  17  21
ENDBRANCH  16  17
ENDBRANCH  14  16
ENDBRANCH   1  14
BRANCH   6  24
ATOM     24  O   LIG    1       -4.845 -12.426 -15.803  0.00  0.00    -0.469 OA
ATOM     25  H   LIG    1       -4.639 -13.185 -15.242  0.00  0.00    +0.401 HD
ENDBRANCH   6  24
BRANCH   7  26
ATOM     26  O   LIG    1       -4.523 -10.137 -17.295  0.00  0.00    -0.467 OA
ATOM     27  H   LIG    1       -4.512  -9.415 -17.939  0.00  0.00    +0.412 HD
ENDBRANCH   7  26
TORSDOF 7
ENDMDL
MODEL 2
REMARK VINA RESULT:      -7.0      4.460      7.495
REMARK  Name = CHEMBL1089536
REMARK                            x       y       z     vdW  Elec       q    Type
REMARK                         _______ _______ _______ _____ _____    ______ ____
ROOT
ATOM      1  C   LIG    1       -2.953 -11.155 -21.246  0.00  0.00    -0.173 A 
ATOM      2  C   LIG    1       -2.938 -12.290 -20.491  0.00  0.00    +0.027 A 
ATOM      3 CL   LIG    1       -2.221 -13.742 -21.118  0.00  0.00    +0.004 Cl
ATOM      4  C   LIG    1       -3.506 -12.283 -19.205  0.00  0.00    -0.083 A 
ATOM      5  C   LIG    1       -3.586 -13.355 -18.277  0.00  0.00    +0.135 A 
ATOM      6  C   LIG    1       -4.172 -13.183 -17.062  0.00  0.00    +0.095 A 
ATOM      7  C   LIG    1       -4.715 -11.951 -16.682  0.00  0.00    +0.192 A 
ATOM      8  C   LIG    1       -4.655 -10.883 -17.560  0.00  0.00    -0.013 A 
ATOM      9  C   LIG    1       -4.062 -11.049 -18.794  0.00  0.00    -0.091 A 
ATOM     10  S   LIG    1       -3.770  -9.980 -20.181  0.00  0.00    +0.216 S 
ENDROOT
BRANCH   8  11
ATOM     11  N   LIG    1       -5.223  -9.571 -17.177  0.00  0.00    +0.023 N 
ATOM     12  O   LIG    1       -6.308  -9.514 -16.647  0.00  0.00    -0.110 OA
ATOM     13  O   LIG    1       -4.602  -8.556 -17.395  0.00  0.00    -0.125 OA
ENDBRANCH   8  11
BRANCH   1  14
ATOM     14  C   LIG    1       -2.423 -10.949 -22.596  0.00  0.00    +0.549 C 
ATOM     15  O   LIG    1       -3.034 -11.369 -23.560  0.00  0.00    -0.460 OA
BRANCH  14  16
ATOM     16  O   LIG    1       -1.257 -10.292 -22.770  0.00  0.00    -0.336 OA
BRANCH  16  17
ATOM     17  C   LIG    1       -1.320  -8.866 -22.841  0.00  0.00    +0.281 C 
BRANCH  17  21
ATOM     18  C   LIG    1        2.052  -7.192 -20.824  0.00  0.00    +0.022 A 
ATOM     19  C   LIG    1        1.240  -6.385 -21.600  0.00  0.00    +0.005 A 
ATOM     20  C   LIG    1        0.149  -6.927 -22.253  0.00  0.00    +0.032 A 
ATOM     21  C   LIG    1       -0.130  -8.275 -22.131  0.00  0.00    -0.104 A 
ATOM     22  C   LIG    1        0.683  -9.082 -21.355  0.00  0.00    +0.033 A 
ATOM     23  C   LIG    1        1.773  -8.540 -20.702  0.00  0.00    +0.005 A 
ENDBRANCH  17  21
ENDBRANCH  16  17
ENDBRANCH  14  16
ENDBRANCH   1  14
BRANCH   6  24
ATOM     24  O   LIG    1       -4.233 -14.233 -16.198  0.00  0.00    -0.469 OA
ATOM     25  H   LIG    1       -4.210 -13.976 -15.266  0.00  0.00    +0.401 HD
ENDBRANCH   6  24
BRANCH   7  26
ATOM     26  O   LIG    1       -5.297 -11.805 -15.462  0.00  0.00    -0.467 OA
ATOM     27  H   LIG    1       -6.235 -11.572 -15.501  0.00  0.00    +0.412 HD
ENDBRANCH   7  26
TORSDOF 7
ENDMDL
MODEL 3
REMARK VINA RESULT:      -6.5      5.026      7.132
REMARK  Name = CHEMBL1089536
REMARK                            x       y       z     vdW  Elec       q    Type
REMARK                         _______ _______ _______ _____ _____    ______ ____
ROOT
ATOM      1  C   LIG    1       -2.764  -9.624 -22.399  0.00  0.00    -0.173 A 
ATOM      2  C   LIG    1       -1.799  -9.207 -21.533  0.00  0.00    +0.027 A 
ATOM      3 CL   LIG    1       -1.577 -10.026 -20.018  0.00  0.00    +0.004 Cl
ATOM      4  C   LIG    1       -0.984  -8.110 -21.867  0.00  0.00    -0.083 A 
ATOM      5  C   LIG    1        0.065  -7.533 -21.103  0.00  0.00    +0.135 A 
ATOM      6  C   LIG    1        0.763  -6.465 -21.573  0.00  0.00    +0.095 A 
ATOM      7  C   LIG    1        0.477  -5.898 -22.820  0.00  0.00    +0.192 A 
ATOM      8  C   LIG    1       -0.538  -6.434 -23.593  0.00  0.00    -0.013 A 
ATOM      9  C   LIG    1       -1.251  -7.517 -23.123  0.00  0.00    -0.091 A 
ATOM     10  S   LIG    1       -2.586  -8.493 -23.768  0.00  0.00    +0.216 S 
ENDROOT
BRANCH   8  11
ATOM     11  N   LIG    1       -0.856  -5.849 -24.914  0.00  0.00    +0.023 N 
ATOM     12  O   LIG    1       -1.926  -5.316 -25.097  0.00  0.00    -0.110 OA
ATOM     13  O   LIG    1       -0.047  -5.904 -25.811  0.00  0.00    -0.125 OA
ENDBRANCH   8  11
BRANCH   1  14
ATOM     14  C   LIG    1       -3.711 -10.732 -22.248  0.00  0.00    +0.549 C 
ATOM     15  O   LIG    1       -4.901 -10.541 -22.409  0.00  0.00    -0.460 OA
BRANCH  14  16
ATOM     16  O   LIG    1       -3.262 -11.964 -21.929  0.00  0.00    -0.336 OA
BRANCH  16  17
ATOM     17  C   LIG    1       -4.244 -12.937 -21.566  0.00  0.00    +0.281 C 
BRANCH  17  21
ATOM     18  C   LIG    1       -3.585 -14.194 -17.537  0.00  0.00    +0.022 A 
ATOM     19  C   LIG    1       -4.285 -13.028 -17.792  0.00  0.00    +0.005 A 
ATOM     20  C   LIG    1       -4.497 -12.622 -19.096  0.00  0.00    +0.032 A 
ATOM     21  C   LIG    1       -4.011 -13.380 -20.144  0.00  0.00    -0.104 A 
ATOM     22  C   LIG    1       -3.311 -14.545 -19.889  0.00  0.00    +0.033 A 
ATOM     23  C   LIG    1       -3.100 -14.952 -18.585  0.00  0.00    +0.005 A 
ENDBRANCH  17  21
ENDBRANCH  16  17
ENDBRANCH  14  16
ENDBRANCH   1  14
BRANCH   6  24
ATOM     24  O   LIG    1        1.761  -5.936 -20.814  0.00  0.00    -0.469 OA
ATOM     25  H   LIG    1        2.606  -5.856 -21.277  0.00  0.00    +0.401 HD
ENDBRANCH   6  24
BRANCH   7  26
ATOM     26  O   LIG    1        1.189  -4.830 -23.267  0.00  0.00    -0.467 OA
ATOM     27  H   LIG    1        0.894  -4.493 -24.124  0.00  0.00    +0.412 HD
ENDBRANCH   7  26
TORSDOF 7
ENDMDL
MODEL 4
REMARK VINA RESULT:      -6.4      9.976     12.972
REMARK  Name = CHEMBL1089536
REMARK                            x       y       z     vdW  Elec       q    Type
REMARK                         _______ _______ _______ _____ _____    ______ ____
ROOT
ATOM      1  C   LIG    1      -10.839  -7.335 -25.433  0.00  0.00    -0.173 A 
ATOM      2  C   LIG    1      -10.116  -8.426 -25.055  0.00  0.00    +0.027 A 
ATOM      3 CL   LIG    1       -8.701  -8.233 -24.067  0.00  0.00    +0.004 Cl
ATOM      4  C   LIG    1      -10.517  -9.710 -25.467  0.00  0.00    -0.083 A 
ATOM      5  C   LIG    1       -9.901 -10.956 -25.178  0.00  0.00    +0.135 A 
ATOM      6  C   LIG    1      -10.419 -12.117 -25.658  0.00  0.00    +0.095 A 
ATOM      7  C   LIG    1      -11.573 -12.130 -26.449  0.00  0.00    +0.192 A 
ATOM      8  C   LIG    1      -12.202 -10.935 -26.751  0.00  0.00    -0.013 A 
ATOM      9  C   LIG    1      -11.682  -9.752 -26.269  0.00  0.00    -0.091 A 
ATOM     10  S   LIG    1      -12.157  -8.047 -26.402  0.00  0.00    +0.216 S 
ENDROOT
BRANCH   8  11
ATOM     11  N   LIG    1      -13.423 -10.926 -27.587  0.00  0.00    +0.023 N 
ATOM     12  O   LIG    1      -14.419 -11.498 -27.208  0.00  0.00    -0.110 OA
ATOM     13  O   LIG    1      -13.425 -10.346 -28.648  0.00  0.00    -0.125 OA
ENDBRANCH   8  11
BRANCH   1  14
ATOM     14  C   LIG    1      -10.597  -5.925 -25.117  0.00  0.00    +0.549 C 
ATOM     15  O   LIG    1      -10.527  -5.104 -26.011  0.00  0.00    -0.460 OA
BRANCH  14  16
ATOM     16  O   LIG    1      -10.453  -5.537 -23.833  0.00  0.00    -0.336 OA
BRANCH  16  17
ATOM     17  C   LIG    1       -9.473  -4.530 -23.566  0.00  0.00    +0.281 C 
BRANCH  17  21
ATOM     18  C   LIG    1       -8.406  -4.644 -19.431  0.00  0.00    +0.022 A 
ATOM     19  C   LIG    1       -9.421  -5.455 -19.905  0.00  0.00    +0.005 A 
ATOM     20  C   LIG    1       -9.766  -5.417 -21.243  0.00  0.00    +0.032 A 
ATOM     21  C   LIG    1       -9.098  -4.570 -22.107  0.00  0.00    -0.104 A 
ATOM     22  C   LIG    1       -8.083  -3.759 -21.632  0.00  0.00    +0.033 A 
ATOM     23  C   LIG    1       -7.736  -3.798 -20.295  0.00  0.00    +0.005 A 
ENDBRANCH  17  21
ENDBRANCH  16  17
ENDBRANCH  14  16
ENDBRANCH   1  14
BRANCH   6  24
ATOM     24  O   LIG    1       -9.801 -13.294 -25.362  0.00  0.00    -0.469 OA
ATOM     25  H   LIG    1      -10.365 -13.928 -24.900  0.00  0.00    +0.401 HD
ENDBRANCH   6  24
BRANCH   7  26
ATOM     26  O   LIG    1      -12.071 -13.305 -26.918  0.00  0.00    -0.467 OA
ATOM     27  H   LIG    1      -11.899 -14.062 -26.340  0.00  0.00    +0.412 HD
ENDBRANCH   7  26
TORSDOF 7
ENDMDL
MODEL 5
REMARK VINA RESULT:      -6.3      5.689      8.337
REMARK  Name = CHEMBL1089536
REMARK                            x       y       z     vdW  Elec       q    Type
REMARK                         _______ _______ _______ _____ _____    ______ ____
ROOT
ATOM      1  C   LIG    1       -1.518  -9.950 -21.650  0.00  0.00    -0.173 A 
ATOM      2  C   LIG    1       -2.021  -9.120 -22.606  0.00  0.00    +0.027 A 
ATOM      3 CL   LIG    1       -3.529  -9.498 -23.380  0.00  0.00    +0.004 Cl
ATOM      4  C   LIG    1       -1.317  -7.958 -22.967  0.00  0.00    -0.083 A 
ATOM      5  C   LIG    1       -1.675  -6.979 -23.931  0.00  0.00    +0.135 A 
ATOM      6  C   LIG    1       -0.877  -5.903 -24.163  0.00  0.00    +0.095 A 
ATOM      7  C   LIG    1        0.321  -5.720 -23.464  0.00  0.00    +0.192 A 
ATOM      8  C   LIG    1        0.703  -6.652 -22.516  0.00  0.00    -0.013 A 
ATOM      9  C   LIG    1       -0.101  -7.746 -22.275  0.00  0.00    -0.091 A 
ATOM     10  S   LIG    1       -0.001  -9.138 -21.178  0.00  0.00    +0.216 S 
ENDROOT
BRANCH   8  11
ATOM     11  N   LIG    1        1.967  -6.477 -21.765  0.00  0.00    +0.023 N 
ATOM     12  O   LIG    1        3.028  -6.596 -22.333  0.00  0.00    -0.110 OA
ATOM     13  O   LIG    1        1.939  -6.216 -20.585  0.00  0.00    -0.125 OA
ENDBRANCH   8  11
BRANCH   1  14
ATOM     14  C   LIG    1       -2.085 -11.198 -21.133  0.00  0.00    +0.549 C 
ATOM     15  O   LIG    1       -2.037 -12.211 -21.803  0.00  0.00    -0.460 OA
BRANCH  14  16
ATOM     16  O   LIG    1       -2.660 -11.223 -19.912  0.00  0.00    -0.336 OA
BRANCH  16  17
ATOM     17  C   LIG    1       -3.260 -10.009 -19.454  0.00  0.00    +0.281 C 
BRANCH  17  21
ATOM     18  C   LIG    1       -5.702 -10.833 -16.047  0.00  0.00    +0.022 A 
ATOM     19  C   LIG    1       -5.783  -9.603 -16.674  0.00  0.00    +0.005 A 
ATOM     20  C   LIG    1       -4.992  -9.337 -17.776  0.00  0.00    +0.032 A 
ATOM     21  C   LIG    1       -4.121 -10.299 -18.251  0.00  0.00    -0.104 A 
ATOM     22  C   LIG    1       -4.040 -11.529 -17.623  0.00  0.00    +0.033 A 
ATOM     23  C   LIG    1       -4.831 -11.795 -16.522  0.00  0.00    +0.005 A 
ENDBRANCH  17  21
ENDBRANCH  16  17
ENDBRANCH  14  16
ENDBRANCH   1  14
BRANCH   6  24
ATOM     24  O   LIG    1       -1.251  -4.985 -25.095  0.00  0.00    -0.469 OA
ATOM     25  H   LIG    1       -1.338  -4.087 -24.749  0.00  0.00    +0.401 HD
ENDBRANCH   6  24
BRANCH   7  26
ATOM     26  O   LIG    1        1.103  -4.636 -23.715  0.00  0.00    -0.467 OA
ATOM     27  H   LIG    1        0.607  -3.846 -23.970  0.00  0.00    +0.412 HD
ENDBRANCH   7  26
TORSDOF 7
ENDMDL
MODEL 6
REMARK VINA RESULT:      -6.3      5.589      8.031
REMARK  Name = CHEMBL1089536
REMARK                            x       y       z     vdW  Elec       q    Type
REMARK                         _______ _______ _______ _____ _____    ______ ____
ROOT
ATOM      1  C   LIG    1       -1.599  -9.579 -22.324  0.00  0.00    -0.173 A 
ATOM      2  C   LIG    1       -2.008  -8.643 -23.225  0.00  0.00    +0.027 A 
ATOM      3 CL   LIG    1       -3.458  -8.896 -24.146  0.00  0.00    +0.004 Cl
ATOM      4  C   LIG    1       -1.252  -7.471 -23.411  0.00  0.00    -0.083 A 
ATOM      5  C   LIG    1       -1.512  -6.391 -24.295  0.00  0.00    +0.135 A 
ATOM      6  C   LIG    1       -0.674  -5.322 -24.354  0.00  0.00    +0.095 A 
ATOM      7  C   LIG    1        0.469  -5.245 -23.551  0.00  0.00    +0.192 A 
ATOM      8  C   LIG    1        0.755  -6.279 -22.677  0.00  0.00    -0.013 A 
ATOM      9  C   LIG    1       -0.090  -7.367 -22.611  0.00  0.00    -0.091 A 
ATOM     10  S   LIG    1       -0.106  -8.864 -21.658  0.00  0.00    +0.216 S 
ENDROOT
BRANCH   8  11
ATOM     11  N   LIG    1        1.959  -6.218 -21.819  0.00  0.00    +0.023 N 
ATOM     12  O   LIG    1        3.059  -6.211 -22.322  0.00  0.00    -0.110 OA
ATOM     13  O   LIG    1        1.844  -6.174 -20.617  0.00  0.00    -0.125 OA
ENDBRANCH   8  11
BRANCH   1  14
ATOM     14  C   LIG    1       -2.232 -10.855 -21.981  0.00  0.00    +0.549 C 
ATOM     15  O   LIG    1       -1.702 -11.902 -22.300  0.00  0.00    -0.460 OA
BRANCH  14  16
ATOM     16  O   LIG    1       -3.404 -10.869 -21.312  0.00  0.00    -0.336 OA
BRANCH  16  17
ATOM     17  C   LIG    1       -3.380 -10.425 -19.953  0.00  0.00    +0.281 C 
BRANCH  17  21
ATOM     18  C   LIG    1       -4.054 -13.754 -17.362  0.00  0.00    +0.022 A 
ATOM     19  C   LIG    1       -4.293 -12.468 -16.912  0.00  0.00    +0.005 A 
ATOM     20  C   LIG    1       -4.074 -11.391 -17.751  0.00  0.00    +0.032 A 
ATOM     21  C   LIG    1       -3.617 -11.599 -19.038  0.00  0.00    -0.104 A 
ATOM     22  C   LIG    1       -3.379 -12.885 -19.488  0.00  0.00    +0.033 A 
ATOM     23  C   LIG    1       -3.598 -13.962 -18.650  0.00  0.00    +0.005 A 
ENDBRANCH  17  21
ENDBRANCH  16  17
ENDBRANCH  14  16
ENDBRANCH   1  14
BRANCH   6  24
ATOM     24  O   LIG    1       -0.954  -4.304 -25.213  0.00  0.00    -0.469 OA
ATOM     25  H   LIG    1       -0.462  -3.492 -25.034  0.00  0.00    +0.401 HD
ENDBRANCH   6  24
BRANCH   7  26
ATOM     26  O   LIG    1        1.291  -4.165 -23.630  0.00  0.00    -0.467 OA
ATOM     27  H   LIG    1        0.957  -3.459 -24.200  0.00  0.00    +0.412 HD
ENDBRANCH   7  26
TORSDOF 7
ENDMDL
MODEL 7
REMARK VINA RESULT:      -6.2      5.218      7.397
REMARK  Name = CHEMBL1089536
REMARK                            x       y       z     vdW  Elec       q    Type
REMARK                         _______ _______ _______ _____ _____    ______ ____
ROOT
ATOM      1  C   LIG    1       -4.577 -11.439 -23.122  0.00  0.00    -0.173 A 
ATOM      2  C   LIG    1       -5.266 -10.404 -23.678  0.00  0.00    +0.027 A 
ATOM      3 CL   LIG    1       -4.412  -9.036 -24.322  0.00  0.00    +0.004 Cl
ATOM      4  C   LIG    1       -6.671 -10.444 -23.728  0.00  0.00    -0.083 A 
ATOM      5  C   LIG    1       -7.558  -9.472 -24.263  0.00  0.00    +0.135 A 
ATOM      6  C   LIG    1       -8.903  -9.664 -24.233  0.00  0.00    +0.095 A 
ATOM      7  C   LIG    1       -9.463 -10.821 -23.679  0.00  0.00    +0.192 A 
ATOM      8  C   LIG    1       -8.631 -11.791 -23.149  0.00  0.00    -0.013 A 
ATOM      9  C   LIG    1       -7.265 -11.603 -23.175  0.00  0.00    -0.091 A 
ATOM     10  S   LIG    1       -5.873 -12.562 -22.630  0.00  0.00    +0.216 S 
ENDROOT
BRANCH   8  11
ATOM     11  N   LIG    1       -9.202 -13.021 -22.558  0.00  0.00    +0.023 N 
ATOM     12  O   LIG    1       -9.971 -12.944 -21.628  0.00  0.00    -0.110 OA
ATOM     13  O   LIG    1       -8.901 -14.103 -23.005  0.00  0.00    -0.125 OA
ENDBRANCH   8  11
BRANCH   1  14
ATOM     14  C   LIG    1       -3.128 -11.595 -22.971  0.00  0.00    +0.549 C 
ATOM     15  O   LIG    1       -2.415 -11.643 -23.955  0.00  0.00    -0.460 OA
BRANCH  14  16
ATOM     16  O   LIG    1       -2.585 -11.685 -21.739  0.00  0.00    -0.336 OA
BRANCH  16  17
ATOM     17  C   LIG    1       -3.114 -10.820 -20.732  0.00  0.00    +0.281 C 
BRANCH  17  21
ATOM     18  C   LIG    1       -4.090 -13.110 -17.260  0.00  0.00    +0.022 A 
ATOM     19  C   LIG    1       -4.135 -11.728 -17.212  0.00  0.00    +0.005 A 
ATOM     20  C   LIG    1       -3.819 -10.988 -18.336  0.00  0.00    +0.032 A 
ATOM     21  C   LIG    1       -3.457 -11.627 -19.506  0.00  0.00    -0.104 A 
ATOM     22  C   LIG    1       -3.412 -13.009 -19.554  0.00  0.00    +0.033 A 
ATOM     23  C   LIG    1       -3.729 -13.749 -18.431  0.00  0.00    +0.005 A 
ENDBRANCH  17  21
ENDBRANCH  16  17
ENDBRANCH  14  16
ENDBRANCH   1  14
BRANCH   6  24
ATOM     24  O   LIG    1       -9.724  -8.711 -24.753  0.00  0.00    -0.469 OA
ATOM     25  H   LIG    1       -9.494  -7.809 -24.491  0.00  0.00    +0.401 HD
ENDBRANCH   6  24
BRANCH   7  26
ATOM     26  O   LIG    1      -10.812 -10.989 -23.660  0.00  0.00    -0.467 OA
ATOM     27  H   LIG    1      -11.228 -10.915 -24.530  0.00  0.00    +0.412 HD
ENDBRANCH   7  26
TORSDOF 7
ENDMDL
MODEL 8
REMARK VINA RESULT:      -6.0      3.349      7.476
REMARK  Name = CHEMBL1089536
REMARK                            x       y       z     vdW  Elec       q    Type
REMARK                         _______ _______ _______ _____ _____    ______ ____
ROOT
ATOM      1  C   LIG    1       -3.811 -15.606 -22.147  0.00  0.00    -0.173 A 
ATOM      2  C   LIG    1       -3.749 -16.588 -21.204  0.00  0.00    +0.027 A 
ATOM      3 CL   LIG    1       -2.674 -16.427 -19.850  0.00  0.00    +0.004 Cl
ATOM      4  C   LIG    1       -4.557 -17.733 -21.330  0.00  0.00    -0.083 A 
ATOM      5  C   LIG    1       -4.633 -18.852 -20.459  0.00  0.00    +0.135 A 
ATOM      6  C   LIG    1       -5.474 -19.886 -20.726  0.00  0.00    +0.095 A 
ATOM      7  C   LIG    1       -6.291 -19.888 -21.861  0.00  0.00    +0.192 A 
ATOM      8  C   LIG    1       -6.245 -18.815 -22.733  0.00  0.00    -0.013 A 
ATOM      9  C   LIG    1       -5.395 -17.761 -22.469  0.00  0.00    -0.091 A 
ATOM     10  S   LIG    1       -5.032 -16.229 -23.289  0.00  0.00    +0.216 S 
ENDROOT
BRANCH   8  11
ATOM     11  N   LIG    1       -7.101 -18.797 -23.940  0.00  0.00    +0.023 N 
ATOM     12  O   LIG    1       -6.607 -18.950 -25.033  0.00  0.00    -0.110 OA
ATOM     13  O   LIG    1       -8.293 -18.629 -23.833  0.00  0.00    -0.125 OA
ENDBRANCH   8  11
BRANCH   1  14
ATOM     14  C   LIG    1       -3.064 -14.348 -22.205  0.00  0.00    +0.549 C 
ATOM     15  O   LIG    1       -1.853 -14.364 -22.316  0.00  0.00    -0.460 OA
BRANCH  14  16
ATOM     16  O   LIG    1       -3.719 -13.170 -22.137  0.00  0.00    -0.336 OA
BRANCH  16  17
ATOM     17  C   LIG    1       -4.832 -13.099 -21.243  0.00  0.00    +0.281 C 
BRANCH  17  21
ATOM     18  C   LIG    1       -3.536 -11.558 -17.475  0.00  0.00    +0.022 A 
ATOM     19  C   LIG    1       -3.579 -10.731 -18.582  0.00  0.00    +0.005 A 
ATOM     20  C   LIG    1       -3.998 -11.230 -19.801  0.00  0.00    +0.032 A 
ATOM     21  C   LIG    1       -4.374 -12.555 -19.914  0.00  0.00    -0.104 A 
ATOM     22  C   LIG    1       -4.331 -13.382 -18.807  0.00  0.00    +0.033 A 
ATOM     23  C   LIG    1       -3.913 -12.883 -17.587  0.00  0.00    +0.005 A 
ENDBRANCH  17  21
ENDBRANCH  16  17
ENDBRANCH  14  16
ENDBRANCH   1  14
BRANCH   6  24
ATOM     24  O   LIG    1       -5.520 -20.944 -19.870  0.00  0.00    -0.469 OA
ATOM     25  H   LIG    1       -6.368 -21.046 -19.418  0.00  0.00    +0.401 HD
ENDBRANCH   6  24
BRANCH   7  26
ATOM     26  O   LIG    1       -7.122 -20.936 -22.107  0.00  0.00    -0.467 OA
ATOM     27  H   LIG    1       -7.389 -21.016 -23.033  0.00  0.00    +0.412 HD
ENDBRANCH   7  26
TORSDOF 7
ENDMDL
MODEL 9
REMARK VINA RESULT:      -5.9      5.061      8.488
REMARK  Name = CHEMBL1089536
REMARK                            x       y       z     vdW  Elec       q    Type
REMARK                         _______ _______ _______ _____ _____    ______ ____
ROOT
ATOM      1  C   LIG    1       -1.286 -10.211 -21.639  0.00  0.00    -0.173 A 
ATOM      2  C   LIG    1       -1.772  -9.788 -20.438  0.00  0.00    +0.027 A 
ATOM      3 CL   LIG    1       -1.434  -8.178 -19.883  0.00  0.00    +0.004 Cl
ATOM      4  C   LIG    1       -2.546 -10.657 -19.649  0.00  0.00    -0.083 A 
ATOM      5  C   LIG    1       -3.134 -10.401 -18.382  0.00  0.00    +0.135 A 
ATOM      6  C   LIG    1       -3.860 -11.358 -17.744  0.00  0.00    +0.095 A 
ATOM      7  C   LIG    1       -4.055 -12.623 -18.309  0.00  0.00    +0.192 A 
ATOM      8  C   LIG    1       -3.498 -12.909 -19.543  0.00  0.00    -0.013 A 
ATOM      9  C   LIG    1       -2.759 -11.944 -20.195  0.00  0.00    -0.091 A 
ATOM     10  S   LIG    1       -1.900 -11.883 -21.747  0.00  0.00    +0.216 S 
ENDROOT
BRANCH   8  11
ATOM     11  N   LIG    1       -3.691 -14.241 -20.157  0.00  0.00    +0.023 N 
ATOM     12  O   LIG    1       -4.250 -14.338 -21.225  0.00  0.00    -0.110 OA
ATOM     13  O   LIG    1       -3.291 -15.232 -19.592  0.00  0.00    -0.125 OA
ENDBRANCH   8  11
BRANCH   1  14
ATOM     14  C   LIG    1       -0.468  -9.474 -22.605  0.00  0.00    +0.549 C 
ATOM     15  O   LIG    1       -0.980  -9.005 -23.603  0.00  0.00    -0.460 OA
BRANCH  14  16
ATOM     16  O   LIG    1        0.854  -9.316 -22.387  0.00  0.00    -0.336 OA
BRANCH  16  17
ATOM     17  C   LIG    1        1.283  -8.044 -21.897  0.00  0.00    +0.281 C 
BRANCH  17  21
ATOM     18  C   LIG    1        4.657  -8.571 -19.331  0.00  0.00    +0.022 A 
ATOM     19  C   LIG    1        4.424  -7.343 -19.923  0.00  0.00    +0.005 A 
ATOM     20  C   LIG    1        3.332  -7.173 -20.753  0.00  0.00    +0.032 A 
ATOM     21  C   LIG    1        2.474  -8.229 -20.993  0.00  0.00    -0.104 A 
ATOM     22  C   LIG    1        2.708  -9.457 -20.401  0.00  0.00    +0.033 A 
ATOM     23  C   LIG    1        3.798  -9.627 -19.569  0.00  0.00    +0.005 A 
ENDBRANCH  17  21
ENDBRANCH  16  17
ENDBRANCH  14  16
ENDBRANCH   1  14
BRANCH   6  24
ATOM     24  O   LIG    1       -4.409 -11.078 -16.530  0.00  0.00    -0.469 OA
ATOM     25  H   LIG    1       -4.148 -11.692 -15.831  0.00  0.00    +0.401 HD
ENDBRANCH   6  24
BRANCH   7  26
ATOM     26  O   LIG    1       -4.784 -13.562 -17.651  0.00  0.00    -0.467 OA
ATOM     27  H   LIG    1       -4.647 -14.463 -17.975  0.00  0.00    +0.412 HD
ENDBRANCH   7  26
TORSDOF 7
ENDMDL
