MODEL 1
REMARK VINA RESULT:      -6.2      0.000      0.000
REMARK  Name = CHEMBL1089630
REMARK                            x       y       z     vdW  Elec       q    Type
REMARK                         _______ _______ _______ _____ _____    ______ ____
ROOT
ATOM      1  C   LIG    1       -2.955 -11.585 -21.343  0.00  0.00    -0.173 A 
ATOM      2  C   LIG    1       -2.948 -12.669 -20.519  0.00  0.00    +0.026 A 
ATOM      3 CL   LIG    1       -2.268 -14.171 -21.062  0.00  0.00    +0.004 Cl
ATOM      4  C   LIG    1       -3.495 -12.570 -19.226  0.00  0.00    -0.083 A 
ATOM      5  C   LIG    1       -3.581 -13.580 -18.231  0.00  0.00    +0.135 A 
ATOM      6  C   LIG    1       -4.146 -13.321 -17.022  0.00  0.00    +0.096 A 
ATOM      7  C   LIG    1       -4.661 -12.056 -16.713  0.00  0.00    +0.191 A 
ATOM      8  C   LIG    1       -4.594 -11.047 -17.659  0.00  0.00    -0.013 A 
ATOM      9  C   LIG    1       -4.024 -11.302 -18.888  0.00  0.00    -0.091 A 
ATOM     10  S   LIG    1       -3.734 -10.329 -20.343  0.00  0.00    +0.214 S 
ENDROOT
BRANCH   8  11
ATOM     11  N   LIG    1       -5.133  -9.703 -17.352  0.00  0.00    +0.023 N 
ATOM     12  O   LIG    1       -6.198  -9.592 -16.789  0.00  0.00    -0.110 OA
ATOM     13  O   LIG    1       -4.510  -8.716 -17.665  0.00  0.00    -0.125 OA
ENDBRANCH   8  11
BRANCH   1  14
ATOM     14  C   LIG    1       -2.442 -11.475 -22.711  0.00  0.00    +0.548 C 
ATOM     15  O   LIG    1       -3.011 -12.045 -23.622  0.00  0.00    -0.460 OA
BRANCH  14  16
ATOM     16  O   LIG    1       -1.337 -10.742 -22.961  0.00  0.00    -0.341 OA
BRANCH  16  17
ATOM     17  C   LIG    1       -0.098 -11.241 -22.454  0.00  0.00    +0.216 C 
BRANCH  17  18
ATOM     18  C   LIG    1        0.706 -10.091 -21.847  0.00  0.00    +0.033 C 
BRANCH  18  20
ATOM     19  C   LIG    1       -0.412  -8.110 -20.813  0.00  0.00    +0.020 C 
ATOM     20  C   LIG    1       -0.009  -9.570 -20.599  0.00  0.00    +0.012 C 
ENDBRANCH  18  20
ENDBRANCH  17  18
ENDBRANCH  16  17
ENDBRANCH  14  16
ENDBRANCH   1  14
BRANCH   6  21
ATOM     21  O   LIG    1       -4.212 -14.311 -16.092  0.00  0.00    -0.469 OA
ATOM     22  H   LIG    1       -3.476 -14.312 -15.465  0.00  0.00    +0.401 HD
ENDBRANCH   6  21
BRANCH   7  23
ATOM     23  O   LIG    1       -5.220 -11.822 -15.498  0.00  0.00    -0.467 OA
ATOM     24  H   LIG    1       -6.002 -12.361 -15.314  0.00  0.00    +0.412 HD
ENDBRANCH   7  23
TORSDOF 8
ENDMDL
MODEL 2
REMARK VINA RESULT:      -5.7      3.525      5.189
REMARK  Name = CHEMBL1089630
REMARK                            x       y       z     vdW  Elec       q    Type
REMARK                         _______ _______ _______ _____ _____    ______ ____
ROOT
ATOM      1  C   LIG    1       -2.505 -15.018 -20.949  0.00  0.00    -0.173 A 
ATOM      2  C   LIG    1       -2.984 -15.106 -19.677  0.00  0.00    +0.026 A 
ATOM      3 CL   LIG    1       -3.103 -16.652 -18.897  0.00  0.00    +0.004 Cl
ATOM      4  C   LIG    1       -3.383 -13.941 -18.996  0.00  0.00    -0.083 A 
ATOM      5  C   LIG    1       -3.904 -13.830 -17.679  0.00  0.00    +0.135 A 
ATOM      6  C   LIG    1       -4.245 -12.619 -17.165  0.00  0.00    +0.096 A 
ATOM      7  C   LIG    1       -4.098 -11.442 -17.908  0.00  0.00    +0.191 A 
ATOM      8  C   LIG    1       -3.593 -11.512 -19.195  0.00  0.00    -0.013 A 
ATOM      9  C   LIG    1       -3.245 -12.736 -19.725  0.00  0.00    -0.091 A 
ATOM     10  S   LIG    1       -2.575 -13.266 -21.281  0.00  0.00    +0.214 S 
ENDROOT
BRANCH   8  11
ATOM     11  N   LIG    1       -3.430 -10.279 -19.999  0.00  0.00    +0.023 N 
ATOM     12  O   LIG    1       -4.032 -10.152 -21.040  0.00  0.00    -0.110 OA
ATOM     13  O   LIG    1       -2.695  -9.400 -19.615  0.00  0.00    -0.125 OA
ENDBRANCH   8  11
BRANCH   1  14
ATOM     14  C   LIG    1       -2.041 -16.095 -21.826  0.00  0.00    +0.548 C 
ATOM     15  O   LIG    1       -0.880 -16.130 -22.186  0.00  0.00    -0.460 OA
BRANCH  14  16
ATOM     16  O   LIG    1       -2.902 -17.050 -22.235  0.00  0.00    -0.341 OA
BRANCH  16  17
ATOM     17  C   LIG    1       -4.095 -16.612 -22.888  0.00  0.00    +0.216 C 
BRANCH  17  18
ATOM     18  C   LIG    1       -5.230 -17.592 -22.589  0.00  0.00    +0.033 C 
BRANCH  18  20
ATOM     19  C   LIG    1       -5.726 -19.642 -21.249  0.00  0.00    +0.020 C 
ATOM     20  C   LIG    1       -4.935 -18.332 -21.283  0.00  0.00    +0.012 C 
ENDBRANCH  18  20
ENDBRANCH  17  18
ENDBRANCH  16  17
ENDBRANCH  14  16
ENDBRANCH   1  14
BRANCH   6  21
ATOM     21  O   LIG    1       -4.741 -12.549 -15.900  0.00  0.00    -0.469 OA
ATOM     22  H   LIG    1       -5.677 -12.786 -15.831  0.00  0.00    +0.401 HD
ENDBRANCH   6  21
BRANCH   7  23
ATOM     23  O   LIG    1       -4.447 -10.244 -17.372  0.00  0.00    -0.467 OA
ATOM     24  H   LIG    1       -4.013  -9.486 -17.786  0.00  0.00    +0.412 HD
ENDBRANCH   7  23
TORSDOF 8
ENDMDL
MODEL 3
REMARK VINA RESULT:      -5.5      1.896      3.483
REMARK  Name = CHEMBL1089630
REMARK                            x       y       z     vdW  Elec       q    Type
REMARK                         _______ _______ _______ _____ _____    ______ ____
ROOT
ATOM      1  C   LIG    1       -3.013 -11.647 -21.437  0.00  0.00    -0.173 A 
ATOM      2  C   LIG    1       -2.999 -12.729 -20.609  0.00  0.00    +0.026 A 
ATOM      3 CL   LIG    1       -2.345 -14.239 -21.161  0.00  0.00    +0.004 Cl
ATOM      4  C   LIG    1       -3.517 -12.620 -19.305  0.00  0.00    -0.083 A 
ATOM      5  C   LIG    1       -3.590 -13.625 -18.305  0.00  0.00    +0.135 A 
ATOM      6  C   LIG    1       -4.125 -13.357 -17.085  0.00  0.00    +0.096 A 
ATOM      7  C   LIG    1       -4.621 -12.086 -16.769  0.00  0.00    +0.191 A 
ATOM      8  C   LIG    1       -4.566 -11.081 -17.719  0.00  0.00    -0.013 A 
ATOM      9  C   LIG    1       -4.025 -11.346 -18.959  0.00  0.00    -0.091 A 
ATOM     10  S   LIG    1       -3.758 -10.381 -20.425  0.00  0.00    +0.214 S 
ENDROOT
BRANCH   8  11
ATOM     11  N   LIG    1       -5.085  -9.730 -17.406  0.00  0.00    +0.023 N 
ATOM     12  O   LIG    1       -4.484  -8.750 -17.780  0.00  0.00    -0.110 OA
ATOM     13  O   LIG    1       -6.109  -9.608 -16.777  0.00  0.00    -0.125 OA
ENDBRANCH   8  11
BRANCH   1  14
ATOM     14  C   LIG    1       -2.530 -11.547 -22.816  0.00  0.00    +0.548 C 
ATOM     15  O   LIG    1       -1.567 -10.851 -23.075  0.00  0.00    -0.460 OA
BRANCH  14  16
ATOM     16  O   LIG    1       -3.154 -12.227 -23.801  0.00  0.00    -0.341 OA
BRANCH  16  17
ATOM     17  C   LIG    1       -4.581 -12.160 -23.832  0.00  0.00    +0.216 C 
BRANCH  17  18
ATOM     18  C   LIG    1       -5.161 -13.571 -23.723  0.00  0.00    +0.033 C 
BRANCH  18  20
ATOM     19  C   LIG    1       -7.217 -14.949 -24.063  0.00  0.00    +0.020 C 
ATOM     20  C   LIG    1       -6.670 -13.523 -23.965  0.00  0.00    +0.012 C 
ENDBRANCH  18  20
ENDBRANCH  17  18
ENDBRANCH  16  17
ENDBRANCH  14  16
ENDBRANCH   1  14
BRANCH   6  21
ATOM     21  O   LIG    1       -4.180 -14.343 -16.149  0.00  0.00    -0.469 OA
ATOM     22  H   LIG    1       -5.077 -14.646 -15.950  0.00  0.00    +0.401 HD
ENDBRANCH   6  21
BRANCH   7  23
ATOM     23  O   LIG    1       -5.151 -11.842 -15.542  0.00  0.00    -0.467 OA
ATOM     24  H   LIG    1       -4.795 -12.405 -14.841  0.00  0.00    +0.412 HD
ENDBRANCH   7  23
TORSDOF 8
ENDMDL
MODEL 4
REMARK VINA RESULT:      -5.4      9.284     11.821
REMARK  Name = CHEMBL1089630
REMARK                            x       y       z     vdW  Elec       q    Type
REMARK                         _______ _______ _______ _____ _____    ______ ____
ROOT
ATOM      1  C   LIG    1        6.072  -7.514 -18.988  0.00  0.00    -0.173 A 
ATOM      2  C   LIG    1        6.690  -6.487 -19.635  0.00  0.00    +0.026 A 
ATOM      3 CL   LIG    1        7.064  -6.622 -21.325  0.00  0.00    +0.004 Cl
ATOM      4  C   LIG    1        7.026  -5.316 -18.931  0.00  0.00    -0.083 A 
ATOM      5  C   LIG    1        7.667  -4.150 -19.426  0.00  0.00    +0.135 A 
ATOM      6  C   LIG    1        7.924  -3.095 -18.607  0.00  0.00    +0.096 A 
ATOM      7  C   LIG    1        7.567  -3.118 -17.254  0.00  0.00    +0.191 A 
ATOM      8  C   LIG    1        6.940  -4.239 -16.737  0.00  0.00    -0.013 A 
ATOM      9  C   LIG    1        6.677  -5.313 -17.560  0.00  0.00    -0.091 A 
ATOM     10  S   LIG    1        5.910  -6.896 -17.323  0.00  0.00    +0.214 S 
ENDROOT
BRANCH   8  11
ATOM     11  N   LIG    1        6.555  -4.284 -15.308  0.00  0.00    +0.023 N 
ATOM     12  O   LIG    1        5.845  -3.421 -14.845  0.00  0.00    -0.110 OA
ATOM     13  O   LIG    1        6.949  -5.183 -14.604  0.00  0.00    -0.125 OA
ENDBRANCH   8  11
BRANCH   1  14
ATOM     14  C   LIG    1        5.642  -8.806 -19.528  0.00  0.00    +0.548 C 
ATOM     15  O   LIG    1        6.160  -9.834 -19.136  0.00  0.00    -0.460 OA
BRANCH  14  16
ATOM     16  O   LIG    1        4.670  -8.856 -20.463  0.00  0.00    -0.341 OA
BRANCH  16  17
ATOM     17  C   LIG    1        3.354  -9.186 -20.015  0.00  0.00    +0.216 C 
BRANCH  17  18
ATOM     18  C   LIG    1        2.338  -8.812 -21.095  0.00  0.00    +0.033 C 
BRANCH  18  20
ATOM     19  C   LIG    1        2.466  -6.423 -21.815  0.00  0.00    +0.020 C 
ATOM     20  C   LIG    1        1.812  -7.399 -20.835  0.00  0.00    +0.012 C 
ENDBRANCH  18  20
ENDBRANCH  17  18
ENDBRANCH  16  17
ENDBRANCH  14  16
ENDBRANCH   1  14
BRANCH   6  21
ATOM     21  O   LIG    1        8.540  -1.993 -19.113  0.00  0.00    -0.469 OA
ATOM     22  H   LIG    1        8.042  -1.173 -18.991  0.00  0.00    +0.401 HD
ENDBRANCH   6  21
BRANCH   7  23
ATOM     23  O   LIG    1        7.834  -2.052 -16.456  0.00  0.00    -0.467 OA
ATOM     24  H   LIG    1        7.426  -1.227 -16.752  0.00  0.00    +0.412 HD
ENDBRANCH   7  23
TORSDOF 8
ENDMDL
MODEL 5
REMARK VINA RESULT:      -5.4      3.652      7.179
REMARK  Name = CHEMBL1089630
REMARK                            x       y       z     vdW  Elec       q    Type
REMARK                         _______ _______ _______ _____ _____    ______ ____
ROOT
ATOM      1  C   LIG    1       -2.234 -10.481 -21.251  0.00  0.00    -0.173 A 
ATOM      2  C   LIG    1       -2.676  -9.667 -22.250  0.00  0.00    +0.026 A 
ATOM      3 CL   LIG    1       -4.182 -10.004 -23.046  0.00  0.00    +0.004 Cl
ATOM      4  C   LIG    1       -1.909  -8.552 -22.637  0.00  0.00    -0.083 A 
ATOM      5  C   LIG    1       -2.199  -7.597 -23.647  0.00  0.00    +0.135 A 
ATOM      6  C   LIG    1       -1.345  -6.570 -23.900  0.00  0.00    +0.096 A 
ATOM      7  C   LIG    1       -0.156  -6.415 -23.178  0.00  0.00    +0.191 A 
ATOM      8  C   LIG    1        0.159  -7.327 -22.186  0.00  0.00    -0.013 A 
ATOM      9  C   LIG    1       -0.700  -8.372 -21.924  0.00  0.00    -0.091 A 
ATOM     10  S   LIG    1       -0.692  -9.723 -20.772  0.00  0.00    +0.214 S 
ENDROOT
BRANCH   8  11
ATOM     11  N   LIG    1        1.413  -7.182 -21.412  0.00  0.00    +0.023 N 
ATOM     12  O   LIG    1        2.294  -8.002 -21.529  0.00  0.00    -0.110 OA
ATOM     13  O   LIG    1        1.556  -6.244 -20.663  0.00  0.00    -0.125 OA
ENDBRANCH   8  11
BRANCH   1  14
ATOM     14  C   LIG    1       -2.872 -11.680 -20.702  0.00  0.00    +0.548 C 
ATOM     15  O   LIG    1       -2.384 -12.776 -20.903  0.00  0.00    -0.460 OA
BRANCH  14  16
ATOM     16  O   LIG    1       -4.002 -11.569 -19.972  0.00  0.00    -0.341 OA
BRANCH  16  17
ATOM     17  C   LIG    1       -3.934 -10.775 -18.787  0.00  0.00    +0.216 C 
BRANCH  17  18
ATOM     18  C   LIG    1       -3.505 -11.651 -17.609  0.00  0.00    +0.033 C 
BRANCH  18  20
ATOM     19  C   LIG    1       -3.752 -14.135 -17.502  0.00  0.00    +0.020 C 
ATOM     20  C   LIG    1       -4.499 -12.801 -17.439  0.00  0.00    +0.012 C 
ENDBRANCH  18  20
ENDBRANCH  17  18
ENDBRANCH  16  17
ENDBRANCH  14  16
ENDBRANCH   1  14
BRANCH   6  21
ATOM     21  O   LIG    1       -1.653  -5.673 -24.875  0.00  0.00    -0.469 OA
ATOM     22  H   LIG    1       -2.192  -4.930 -24.570  0.00  0.00    +0.401 HD
ENDBRANCH   6  21
BRANCH   7  23
ATOM     23  O   LIG    1        0.681  -5.380 -23.450  0.00  0.00    -0.467 OA
ATOM     24  H   LIG    1        1.603  -5.546 -23.211  0.00  0.00    +0.412 HD
ENDBRANCH   7  23
TORSDOF 8
ENDMDL
MODEL 6
REMARK VINA RESULT:      -5.2      3.881      7.317
REMARK  Name = CHEMBL1089630
REMARK                            x       y       z     vdW  Elec       q    Type
REMARK                         _______ _______ _______ _____ _____    ______ ____
ROOT
ATOM      1  C   LIG    1       -2.717  -9.501 -22.182  0.00  0.00    -0.173 A 
ATOM      2  C   LIG    1       -1.718  -9.107 -21.345  0.00  0.00    +0.026 A 
ATOM      3 CL   LIG    1       -1.494  -9.904 -19.820  0.00  0.00    +0.004 Cl
ATOM      4  C   LIG    1       -0.867  -8.050 -21.720  0.00  0.00    -0.083 A 
ATOM      5  C   LIG    1        0.220  -7.500 -20.990  0.00  0.00    +0.135 A 
ATOM      6  C   LIG    1        0.949  -6.471 -21.496  0.00  0.00    +0.096 A 
ATOM      7  C   LIG    1        0.658  -5.916 -22.749  0.00  0.00    +0.191 A 
ATOM      8  C   LIG    1       -0.394  -6.428 -23.488  0.00  0.00    -0.013 A 
ATOM      9  C   LIG    1       -1.139  -7.471 -22.982  0.00  0.00    -0.091 A 
ATOM     10  S   LIG    1       -2.525  -8.406 -23.577  0.00  0.00    +0.214 S 
ENDROOT
BRANCH   8  11
ATOM     11  N   LIG    1       -0.719  -5.856 -24.815  0.00  0.00    +0.023 N 
ATOM     12  O   LIG    1        0.066  -5.966 -25.729  0.00  0.00    -0.110 OA
ATOM     13  O   LIG    1       -1.767  -5.280 -24.985  0.00  0.00    -0.125 OA
ENDBRANCH   8  11
BRANCH   1  14
ATOM     14  C   LIG    1       -3.703 -10.567 -21.987  0.00  0.00    +0.548 C 
ATOM     15  O   LIG    1       -4.852 -10.409 -22.356  0.00  0.00    -0.460 OA
BRANCH  14  16
ATOM     16  O   LIG    1       -3.338 -11.724 -21.397  0.00  0.00    -0.341 OA
BRANCH  16  17
ATOM     17  C   LIG    1       -4.215 -12.249 -20.399  0.00  0.00    +0.216 C 
BRANCH  17  18
ATOM     18  C   LIG    1       -3.513 -13.379 -19.645  0.00  0.00    +0.033 C 
BRANCH  18  20
ATOM     19  C   LIG    1       -3.760 -11.886 -17.656  0.00  0.00    +0.020 C 
ATOM     20  C   LIG    1       -3.898 -13.322 -18.165  0.00  0.00    +0.012 C 
ENDBRANCH  18  20
ENDBRANCH  17  18
ENDBRANCH  16  17
ENDBRANCH  14  16
ENDBRANCH   1  14
BRANCH   6  21
ATOM     21  O   LIG    1        1.984  -5.967 -20.771  0.00  0.00    -0.469 OA
ATOM     22  H   LIG    1        2.280  -6.545 -20.055  0.00  0.00    +0.401 HD
ENDBRANCH   6  21
BRANCH   7  23
ATOM     23  O   LIG    1        1.402  -4.888 -23.233  0.00  0.00    -0.467 OA
ATOM     24  H   LIG    1        2.185  -4.685 -22.703  0.00  0.00    +0.412 HD
ENDBRANCH   7  23
TORSDOF 8
ENDMDL
MODEL 7
REMARK VINA RESULT:      -5.1      3.249      3.966
REMARK  Name = CHEMBL1089630
REMARK                            x       y       z     vdW  Elec       q    Type
REMARK                         _______ _______ _______ _____ _____    ______ ____
ROOT
ATOM      1  C   LIG    1       -2.486 -14.914 -21.072  0.00  0.00    -0.173 A 
ATOM      2  C   LIG    1       -2.970 -15.052 -19.807  0.00  0.00    +0.026 A 
ATOM      3 CL   LIG    1       -3.098 -16.629 -19.091  0.00  0.00    +0.004 Cl
ATOM      4  C   LIG    1       -3.369 -13.915 -19.080  0.00  0.00    -0.083 A 
ATOM      5  C   LIG    1       -3.894 -13.856 -17.762  0.00  0.00    +0.135 A 
ATOM      6  C   LIG    1       -4.234 -12.666 -17.200  0.00  0.00    +0.096 A 
ATOM      7  C   LIG    1       -4.080 -11.460 -17.894  0.00  0.00    +0.191 A 
ATOM      8  C   LIG    1       -3.570 -11.479 -19.181  0.00  0.00    -0.013 A 
ATOM      9  C   LIG    1       -3.224 -12.681 -19.759  0.00  0.00    -0.091 A 
ATOM     10  S   LIG    1       -2.549 -13.150 -21.332  0.00  0.00    +0.214 S 
ENDROOT
BRANCH   8  11
ATOM     11  N   LIG    1       -3.399 -10.215 -19.933  0.00  0.00    +0.023 N 
ATOM     12  O   LIG    1       -2.661  -9.355 -19.510  0.00  0.00    -0.110 OA
ATOM     13  O   LIG    1       -3.997 -10.042 -20.969  0.00  0.00    -0.125 OA
ENDBRANCH   8  11
BRANCH   1  14
ATOM     14  C   LIG    1       -2.021 -15.956 -21.990  0.00  0.00    +0.548 C 
ATOM     15  O   LIG    1       -2.826 -16.657 -22.573  0.00  0.00    -0.460 OA
BRANCH  14  16
ATOM     16  O   LIG    1       -0.699 -16.139 -22.190  0.00  0.00    -0.341 OA
BRANCH  16  17
ATOM     17  C   LIG    1        0.017 -16.852 -21.180  0.00  0.00    +0.216 C 
BRANCH  17  18
ATOM     18  C   LIG    1        0.775 -15.861 -20.295  0.00  0.00    +0.033 C 
BRANCH  18  20
ATOM     19  C   LIG    1        2.796 -14.768 -21.276  0.00  0.00    +0.020 C 
ATOM     20  C   LIG    1        2.278 -16.005 -20.538  0.00  0.00    +0.012 C 
ENDBRANCH  18  20
ENDBRANCH  17  18
ENDBRANCH  16  17
ENDBRANCH  14  16
ENDBRANCH   1  14
BRANCH   6  21
ATOM     21  O   LIG    1       -4.736 -12.646 -15.936  0.00  0.00    -0.469 OA
ATOM     22  H   LIG    1       -5.218 -11.836 -15.717  0.00  0.00    +0.401 HD
ENDBRANCH   6  21
BRANCH   7  23
ATOM     23  O   LIG    1       -4.428 -10.284 -17.311  0.00  0.00    -0.467 OA
ATOM     24  H   LIG    1       -3.676  -9.714 -17.096  0.00  0.00    +0.412 HD
ENDBRANCH   7  23
TORSDOF 8
ENDMDL
MODEL 8
REMARK VINA RESULT:      -4.9      2.737      3.704
REMARK  Name = CHEMBL1089630
REMARK                            x       y       z     vdW  Elec       q    Type
REMARK                         _______ _______ _______ _____ _____    ______ ____
ROOT
ATOM      1  C   LIG    1       -1.165 -10.374 -21.755  0.00  0.00    -0.173 A 
ATOM      2  C   LIG    1       -1.677  -9.874 -20.595  0.00  0.00    +0.026 A 
ATOM      3 CL   LIG    1       -1.350  -8.232 -20.136  0.00  0.00    +0.004 Cl
ATOM      4  C   LIG    1       -2.470 -10.692 -19.770  0.00  0.00    -0.083 A 
ATOM      5  C   LIG    1       -3.086 -10.356 -18.535  0.00  0.00    +0.135 A 
ATOM      6  C   LIG    1       -3.826 -11.270 -17.854  0.00  0.00    +0.096 A 
ATOM      7  C   LIG    1       -4.009 -12.570 -18.341  0.00  0.00    +0.191 A 
ATOM      8  C   LIG    1       -3.425 -12.933 -19.542  0.00  0.00    -0.013 A 
ATOM      9  C   LIG    1       -2.671 -12.012 -20.238  0.00  0.00    -0.091 A 
ATOM     10  S   LIG    1       -1.778 -12.049 -21.771  0.00  0.00    +0.214 S 
ENDROOT
BRANCH   8  11
ATOM     11  N   LIG    1       -3.606 -14.302 -20.075  0.00  0.00    +0.023 N 
ATOM     12  O   LIG    1       -3.254 -15.257 -19.420  0.00  0.00    -0.110 OA
ATOM     13  O   LIG    1       -4.104 -14.466 -21.163  0.00  0.00    -0.125 OA
ENDBRANCH   8  11
BRANCH   1  14
ATOM     14  C   LIG    1       -0.325  -9.699 -22.747  0.00  0.00    +0.548 C 
ATOM     15  O   LIG    1       -0.760  -9.470 -23.859  0.00  0.00    -0.460 OA
BRANCH  14  16
ATOM     16  O   LIG    1        0.933  -9.332 -22.427  0.00  0.00    -0.341 OA
BRANCH  16  17
ATOM     17  C   LIG    1        1.690 -10.238 -21.622  0.00  0.00    +0.216 C 
BRANCH  17  18
ATOM     18  C   LIG    1        2.552  -9.448 -20.637  0.00  0.00    +0.033 C 
BRANCH  18  20
ATOM     19  C   LIG    1        3.562  -7.167 -20.493  0.00  0.00    +0.020 C 
ATOM     20  C   LIG    1        2.287  -7.951 -20.811  0.00  0.00    +0.012 C 
ENDBRANCH  18  20
ENDBRANCH  17  18
ENDBRANCH  16  17
ENDBRANCH  14  16
ENDBRANCH   1  14
BRANCH   6  21
ATOM     21  O   LIG    1       -4.401 -10.916 -16.673  0.00  0.00    -0.469 OA
ATOM     22  H   LIG    1       -4.267  -9.988 -16.433  0.00  0.00    +0.401 HD
ENDBRANCH   6  21
BRANCH   7  23
ATOM     23  O   LIG    1       -4.754 -13.466 -17.641  0.00  0.00    -0.467 OA
ATOM     24  H   LIG    1       -5.688 -13.227 -17.567  0.00  0.00    +0.412 HD
ENDBRANCH   7  23
TORSDOF 8
ENDMDL
MODEL 9
REMARK VINA RESULT:      -4.8      2.384      3.507
REMARK  Name = CHEMBL1089630
REMARK                            x       y       z     vdW  Elec       q    Type
REMARK                         _______ _______ _______ _____ _____    ______ ____
ROOT
ATOM      1  C   LIG    1       -2.318 -12.096 -22.143  0.00  0.00    -0.173 A 
ATOM      2  C   LIG    1       -3.016 -11.485 -21.145  0.00  0.00    +0.026 A 
ATOM      3 CL   LIG    1       -3.473  -9.818 -21.297  0.00  0.00    +0.004 Cl
ATOM      4  C   LIG    1       -3.365 -12.210 -19.990  0.00  0.00    -0.083 A 
ATOM      5  C   LIG    1       -4.083 -11.753 -18.853  0.00  0.00    +0.135 A 
ATOM      6  C   LIG    1       -4.339 -12.586 -17.810  0.00  0.00    +0.096 A 
ATOM      7  C   LIG    1       -3.909 -13.918 -17.817  0.00  0.00    +0.191 A 
ATOM      8  C   LIG    1       -3.207 -14.398 -18.909  0.00  0.00    -0.013 A 
ATOM      9  C   LIG    1       -2.941 -13.559 -19.970  0.00  0.00    -0.091 A 
ATOM     10  S   LIG    1       -2.106 -13.756 -21.524  0.00  0.00    +0.214 S 
ENDROOT
BRANCH   8  11
ATOM     11  N   LIG    1       -2.742 -15.804 -18.936  0.00  0.00    +0.023 N 
ATOM     12  O   LIG    1       -1.734 -16.118 -18.346  0.00  0.00    -0.110 OA
ATOM     13  O   LIG    1       -3.369 -16.636 -19.547  0.00  0.00    -0.125 OA
ENDBRANCH   8  11
BRANCH   1  14
ATOM     14  C   LIG    1       -1.859 -11.530 -23.414  0.00  0.00    +0.548 C 
ATOM     15  O   LIG    1       -2.567 -11.595 -24.401  0.00  0.00    -0.460 OA
BRANCH  14  16
ATOM     16  O   LIG    1       -0.650 -10.936 -23.491  0.00  0.00    -0.341 OA
BRANCH  16  17
ATOM     17  C   LIG    1        0.269 -11.193 -22.428  0.00  0.00    +0.216 C 
BRANCH  17  18
ATOM     18  C   LIG    1        0.805  -9.868 -21.885  0.00  0.00    +0.033 C 
BRANCH  18  20
ATOM     19  C   LIG    1       -0.498  -8.152 -20.618  0.00  0.00    +0.020 C 
ATOM     20  C   LIG    1        0.124  -9.549 -20.552  0.00  0.00    +0.012 C 
ENDBRANCH  18  20
ENDBRANCH  17  18
ENDBRANCH  16  17
ENDBRANCH  14  16
ENDBRANCH   1  14
BRANCH   6  21
ATOM     21  O   LIG    1       -5.029 -12.116 -16.737  0.00  0.00    -0.469 OA
ATOM     22  H   LIG    1       -5.003 -12.699 -15.966  0.00  0.00    +0.401 HD
ENDBRANCH   6  21
BRANCH   7  23
ATOM     23  O   LIG    1       -4.178 -14.731 -16.762  0.00  0.00    -0.467 OA
ATOM     24  H   LIG    1       -3.430 -15.278 -16.487  0.00  0.00    +0.412 HD
ENDBRANCH   7  23
TORSDOF 8
ENDMDL
