MODEL 1
REMARK VINA RESULT:      -6.0      0.000      0.000
REMARK  Name = CHEMBL1089504
REMARK                            x       y       z     vdW  Elec       q    Type
REMARK                         _______ _______ _______ _____ _____    ______ ____
ROOT
ATOM      1  C   LIG    1       -2.900 -11.490 -21.346  0.00  0.00    -0.174 A 
ATOM      2  C   LIG    1       -2.913 -12.592 -20.544  0.00  0.00    +0.027 A 
ATOM      3 CL   LIG    1       -2.246 -14.089 -21.114  0.00  0.00    +0.004 Cl
ATOM      4  C   LIG    1       -3.470 -12.513 -19.255  0.00  0.00    -0.083 A 
ATOM      5  C   LIG    1       -3.577 -13.544 -18.282  0.00  0.00    +0.135 A 
ATOM      6  C   LIG    1       -4.147 -13.302 -17.072  0.00  0.00    +0.096 A 
ATOM      7  C   LIG    1       -4.649 -12.039 -16.740  0.00  0.00    +0.192 A 
ATOM      8  C   LIG    1       -4.563 -11.011 -17.663  0.00  0.00    -0.013 A 
ATOM      9  C   LIG    1       -3.986 -11.247 -18.893  0.00  0.00    -0.090 A 
ATOM     10  S   LIG    1       -3.673 -10.246 -20.325  0.00  0.00    +0.214 S 
ENDROOT
BRANCH   8  11
ATOM     11  N   LIG    1       -5.089  -9.668 -17.332  0.00  0.00    +0.023 N 
ATOM     12  O   LIG    1       -6.135  -9.556 -16.737  0.00  0.00    -0.110 OA
ATOM     13  O   LIG    1       -4.472  -8.680 -17.658  0.00  0.00    -0.125 OA
ENDBRANCH   8  11
BRANCH   1  14
ATOM     14  C   LIG    1       -2.376 -11.356 -22.706  0.00  0.00    +0.546 C 
ATOM     15  O   LIG    1       -3.141 -11.302 -23.650  0.00  0.00    -0.459 OA
BRANCH  14  17
ATOM     16  C   LIG    1       -0.276 -10.534 -21.979  0.00  0.00    +0.282 C 
ATOM     17  O   LIG    1       -1.044 -11.295 -22.914  0.00  0.00    -0.343 OA
ENDBRANCH  14  17
ENDBRANCH   1  14
BRANCH   6  18
ATOM     18  O   LIG    1       -4.233 -14.311 -16.164  0.00  0.00    -0.469 OA
ATOM     19  H   LIG    1       -3.724 -14.157 -15.356  0.00  0.00    +0.401 HD
ENDBRANCH   6  18
BRANCH   7  20
ATOM     20  O   LIG    1       -5.216 -11.824 -15.524  0.00  0.00    -0.467 OA
ATOM     21  H   LIG    1       -5.352 -10.890 -15.314  0.00  0.00    +0.412 HD
ENDBRANCH   7  20
TORSDOF 5
ENDMDL
MODEL 2
REMARK VINA RESULT:      -5.6     10.623     12.692
REMARK  Name = CHEMBL1089504
REMARK                            x       y       z     vdW  Elec       q    Type
REMARK                         _______ _______ _______ _____ _____    ______ ____
ROOT
ATOM      1  C   LIG    1        6.046  -7.489 -19.013  0.00  0.00    -0.174 A 
ATOM      2  C   LIG    1        6.673  -6.459 -19.647  0.00  0.00    +0.027 A 
ATOM      3 CL   LIG    1        7.038  -6.574 -21.340  0.00  0.00    +0.004 Cl
ATOM      4  C   LIG    1        7.025  -5.303 -18.926  0.00  0.00    -0.083 A 
ATOM      5  C   LIG    1        7.679  -4.137 -19.407  0.00  0.00    +0.135 A 
ATOM      6  C   LIG    1        7.949  -3.098 -18.573  0.00  0.00    +0.096 A 
ATOM      7  C   LIG    1        7.598  -3.136 -17.219  0.00  0.00    +0.192 A 
ATOM      8  C   LIG    1        6.961  -4.257 -16.716  0.00  0.00    -0.013 A 
ATOM      9  C   LIG    1        6.682  -5.316 -17.554  0.00  0.00    -0.090 A 
ATOM     10  S   LIG    1        5.897  -6.893 -17.337  0.00  0.00    +0.214 S 
ENDROOT
BRANCH   8  11
ATOM     11  N   LIG    1        6.581  -4.319 -15.287  0.00  0.00    +0.023 N 
ATOM     12  O   LIG    1        6.967  -5.234 -14.597  0.00  0.00    -0.110 OA
ATOM     13  O   LIG    1        5.885  -3.455 -14.808  0.00  0.00    -0.125 OA
ENDBRANCH   8  11
BRANCH   1  14
ATOM     14  C   LIG    1        5.598  -8.767 -19.569  0.00  0.00    +0.546 C 
ATOM     15  O   LIG    1        4.445  -8.901 -19.932  0.00  0.00    -0.459 OA
BRANCH  14  17
ATOM     16  C   LIG    1        6.616 -10.641 -18.536  0.00  0.00    +0.282 C 
ATOM     17  O   LIG    1        6.463  -9.796 -19.679  0.00  0.00    -0.343 OA
ENDBRANCH  14  17
ENDBRANCH   1  14
BRANCH   6  18
ATOM     18  O   LIG    1        8.576  -1.996 -19.065  0.00  0.00    -0.469 OA
ATOM     19  H   LIG    1        8.019  -1.206 -19.094  0.00  0.00    +0.401 HD
ENDBRANCH   6  18
BRANCH   7  20
ATOM     20  O   LIG    1        7.881  -2.085 -16.406  0.00  0.00    -0.467 OA
ATOM     21  H   LIG    1        7.105  -1.571 -16.144  0.00  0.00    +0.412 HD
ENDBRANCH   7  20
TORSDOF 5
ENDMDL
MODEL 3
REMARK VINA RESULT:      -5.5      2.874      3.368
REMARK  Name = CHEMBL1089504
REMARK                            x       y       z     vdW  Elec       q    Type
REMARK                         _______ _______ _______ _____ _____    ______ ____
ROOT
ATOM      1  C   LIG    1       -2.454 -14.890 -20.886  0.00  0.00    -0.174 A 
ATOM      2  C   LIG    1       -2.956 -15.010 -19.625  0.00  0.00    +0.027 A 
ATOM      3 CL   LIG    1       -3.068 -16.573 -18.880  0.00  0.00    +0.004 Cl
ATOM      4  C   LIG    1       -3.383 -13.864 -18.929  0.00  0.00    -0.083 A 
ATOM      5  C   LIG    1       -3.930 -13.788 -17.620  0.00  0.00    +0.135 A 
ATOM      6  C   LIG    1       -4.296 -12.592 -17.088  0.00  0.00    +0.096 A 
ATOM      7  C   LIG    1       -4.151 -11.399 -17.803  0.00  0.00    +0.192 A 
ATOM      8  C   LIG    1       -3.622 -11.435 -19.082  0.00  0.00    -0.013 A 
ATOM      9  C   LIG    1       -3.247 -12.643 -19.630  0.00  0.00    -0.090 A 
ATOM     10  S   LIG    1       -2.540 -13.132 -21.183  0.00  0.00    +0.214 S 
ENDROOT
BRANCH   8  11
ATOM     11  N   LIG    1       -3.459 -10.184 -19.857  0.00  0.00    +0.023 N 
ATOM     12  O   LIG    1       -2.752  -9.299 -19.436  0.00  0.00    -0.110 OA
ATOM     13  O   LIG    1       -4.035 -10.047 -20.911  0.00  0.00    -0.125 OA
ENDBRANCH   8  11
BRANCH   1  14
ATOM     14  C   LIG    1       -1.959 -15.942 -21.776  0.00  0.00    +0.546 C 
ATOM     15  O   LIG    1       -2.738 -16.728 -22.280  0.00  0.00    -0.459 OA
BRANCH  14  17
ATOM     16  C   LIG    1        0.206 -16.457 -20.962  0.00  0.00    +0.282 C 
ATOM     17  O   LIG    1       -0.639 -16.040 -22.037  0.00  0.00    -0.343 OA
ENDBRANCH  14  17
ENDBRANCH   1  14
BRANCH   6  18
ATOM     18  O   LIG    1       -4.817 -12.554 -15.832  0.00  0.00    -0.469 OA
ATOM     19  H   LIG    1       -5.712 -12.189 -15.788  0.00  0.00    +0.401 HD
ENDBRANCH   6  18
BRANCH   7  20
ATOM     20  O   LIG    1       -4.526 -10.216 -17.249  0.00  0.00    -0.467 OA
ATOM     21  H   LIG    1       -5.249  -9.775 -17.716  0.00  0.00    +0.412 HD
ENDBRANCH   7  20
TORSDOF 5
ENDMDL
MODEL 4
REMARK VINA RESULT:      -5.2      2.102      2.304
REMARK  Name = CHEMBL1089504
REMARK                            x       y       z     vdW  Elec       q    Type
REMARK                         _______ _______ _______ _____ _____    ______ ____
ROOT
ATOM      1  C   LIG    1       -2.805 -13.839 -21.852  0.00  0.00    -0.174 A 
ATOM      2  C   LIG    1       -3.089 -14.465 -20.675  0.00  0.00    +0.027 A 
ATOM      3 CL   LIG    1       -3.083 -16.198 -20.588  0.00  0.00    +0.004 Cl
ATOM      4  C   LIG    1       -3.388 -13.702 -19.531  0.00  0.00    -0.083 A 
ATOM      5  C   LIG    1       -3.708 -14.167 -18.227  0.00  0.00    +0.135 A 
ATOM      6  C   LIG    1       -3.974 -13.291 -17.222  0.00  0.00    +0.096 A 
ATOM      7  C   LIG    1       -3.944 -11.909 -17.431  0.00  0.00    +0.192 A 
ATOM      8  C   LIG    1       -3.637 -11.419 -18.688  0.00  0.00    -0.013 A 
ATOM      9  C   LIG    1       -3.366 -12.299 -19.714  0.00  0.00    -0.090 A 
ATOM     10  S   LIG    1       -2.932 -12.111 -21.425  0.00  0.00    +0.214 S 
ENDROOT
BRANCH   8  11
ATOM     11  N   LIG    1       -3.601  -9.959 -18.931  0.00  0.00    +0.023 N 
ATOM     12  O   LIG    1       -4.501  -9.257 -18.535  0.00  0.00    -0.110 OA
ATOM     13  O   LIG    1       -2.671  -9.468 -19.527  0.00  0.00    -0.125 OA
ENDBRANCH   8  11
BRANCH   1  14
ATOM     14  C   LIG    1       -2.471 -14.437 -23.146  0.00  0.00    +0.546 C 
ATOM     15  O   LIG    1       -3.357 -14.731 -23.926  0.00  0.00    -0.459 OA
BRANCH  14  17
ATOM     16  C   LIG    1       -0.691 -14.025 -24.654  0.00  0.00    +0.282 C 
ATOM     17  O   LIG    1       -1.182 -14.663 -23.474  0.00  0.00    -0.343 OA
ENDBRANCH  14  17
ENDBRANCH   1  14
BRANCH   6  18
ATOM     18  O   LIG    1       -4.276 -13.771 -15.986  0.00  0.00    -0.469 OA
ATOM     19  H   LIG    1       -4.110 -14.718 -15.879  0.00  0.00    +0.401 HD
ENDBRANCH   6  18
BRANCH   7  20
ATOM     20  O   LIG    1       -4.215 -11.054 -16.409  0.00  0.00    -0.467 OA
ATOM     21  H   LIG    1       -3.456 -10.525 -16.127  0.00  0.00    +0.412 HD
ENDBRANCH   7  20
TORSDOF 5
ENDMDL
MODEL 5
REMARK VINA RESULT:      -5.1      2.997      6.146
REMARK  Name = CHEMBL1089504
REMARK                            x       y       z     vdW  Elec       q    Type
REMARK                         _______ _______ _______ _____ _____    ______ ____
ROOT
ATOM      1  C   LIG    1       -4.435 -11.722 -17.494  0.00  0.00    -0.174 A 
ATOM      2  C   LIG    1       -3.892 -11.238 -18.646  0.00  0.00    +0.027 A 
ATOM      3 CL   LIG    1       -3.948  -9.537 -18.985  0.00  0.00    +0.004 Cl
ATOM      4  C   LIG    1       -3.288 -12.121 -19.560  0.00  0.00    -0.083 A 
ATOM      5  C   LIG    1       -2.675 -11.809 -20.803  0.00  0.00    +0.135 A 
ATOM      6  C   LIG    1       -2.132 -12.788 -21.575  0.00  0.00    +0.096 A 
ATOM      7  C   LIG    1       -2.156 -14.129 -21.180  0.00  0.00    +0.192 A 
ATOM      8  C   LIG    1       -2.746 -14.470 -19.975  0.00  0.00    -0.013 A 
ATOM      9  C   LIG    1       -3.299 -13.484 -19.185  0.00  0.00    -0.090 A 
ATOM     10  S   LIG    1       -4.122 -13.475 -17.612  0.00  0.00    +0.214 S 
ENDROOT
BRANCH   8  11
ATOM     11  N   LIG    1       -2.784 -15.883 -19.537  0.00  0.00    +0.023 N 
ATOM     12  O   LIG    1       -2.077 -16.255 -18.630  0.00  0.00    -0.110 OA
ATOM     13  O   LIG    1       -3.522 -16.667 -20.087  0.00  0.00    -0.125 OA
ENDBRANCH   8  11
BRANCH   1  14
ATOM     14  C   LIG    1       -5.105 -10.986 -16.420  0.00  0.00    +0.546 C 
ATOM     15  O   LIG    1       -5.547 -11.583 -15.457  0.00  0.00    -0.459 OA
BRANCH  14  17
ATOM     16  C   LIG    1       -6.562  -9.120 -16.523  0.00  0.00    +0.282 C 
ATOM     17  O   LIG    1       -5.233  -9.645 -16.499  0.00  0.00    -0.343 OA
ENDBRANCH  14  17
ENDBRANCH   1  14
BRANCH   6  18
ATOM     18  O   LIG    1       -1.552 -12.455 -22.760  0.00  0.00    -0.469 OA
ATOM     19  H   LIG    1       -1.542 -13.172 -23.408  0.00  0.00    +0.401 HD
ENDBRANCH   6  18
BRANCH   7  20
ATOM     20  O   LIG    1       -1.607 -15.088 -21.970  0.00  0.00    -0.467 OA
ATOM     21  H   LIG    1       -0.685 -15.290 -21.761  0.00  0.00    +0.412 HD
ENDBRANCH   7  20
TORSDOF 5
ENDMDL
MODEL 6
REMARK VINA RESULT:      -4.8      4.214      7.218
REMARK  Name = CHEMBL1089504
REMARK                            x       y       z     vdW  Elec       q    Type
REMARK                         _______ _______ _______ _____ _____    ______ ____
ROOT
ATOM      1  C   LIG    1       -2.210 -10.366 -21.067  0.00  0.00    -0.174 A 
ATOM      2  C   LIG    1       -2.596  -9.593 -22.120  0.00  0.00    +0.027 A 
ATOM      3 CL   LIG    1       -4.074  -9.944 -22.960  0.00  0.00    +0.004 Cl
ATOM      4  C   LIG    1       -1.794  -8.511 -22.526  0.00  0.00    -0.083 A 
ATOM      5  C   LIG    1       -2.026  -7.600 -23.591  0.00  0.00    +0.135 A 
ATOM      6  C   LIG    1       -1.145  -6.599 -23.855  0.00  0.00    +0.096 A 
ATOM      7  C   LIG    1        0.016  -6.428 -23.094  0.00  0.00    +0.192 A 
ATOM      8  C   LIG    1        0.275  -7.297 -22.048  0.00  0.00    -0.013 A 
ATOM      9  C   LIG    1       -0.613  -8.315 -21.773  0.00  0.00    -0.090 A 
ATOM     10  S   LIG    1       -0.675  -9.610 -20.560  0.00  0.00    +0.214 S 
ENDROOT
BRANCH   8  11
ATOM     11  N   LIG    1        1.499  -7.136 -21.231  0.00  0.00    +0.023 N 
ATOM     12  O   LIG    1        1.696  -6.104 -20.634  0.00  0.00    -0.110 OA
ATOM     13  O   LIG    1        2.302  -8.037 -21.160  0.00  0.00    -0.125 OA
ENDBRANCH   8  11
BRANCH   1  14
ATOM     14  C   LIG    1       -2.889 -11.527 -20.488  0.00  0.00    +0.546 C 
ATOM     15  O   LIG    1       -2.565 -12.650 -20.823  0.00  0.00    -0.459 OA
BRANCH  14  17
ATOM     16  C   LIG    1       -3.515 -11.438 -18.205  0.00  0.00    +0.282 C 
ATOM     17  O   LIG    1       -3.876 -11.351 -19.585  0.00  0.00    -0.343 OA
ENDBRANCH  14  17
ENDBRANCH   1  14
BRANCH   6  18
ATOM     18  O   LIG    1       -1.397  -5.744 -24.883  0.00  0.00    -0.469 OA
ATOM     19  H   LIG    1       -1.222  -6.118 -25.757  0.00  0.00    +0.401 HD
ENDBRANCH   6  18
BRANCH   7  20
ATOM     20  O   LIG    1        0.882  -5.421 -23.379  0.00  0.00    -0.467 OA
ATOM     21  H   LIG    1        0.707  -4.603 -22.893  0.00  0.00    +0.412 HD
ENDBRANCH   7  20
TORSDOF 5
ENDMDL
MODEL 7
REMARK VINA RESULT:      -4.8      2.812      3.839
REMARK  Name = CHEMBL1089504
REMARK                            x       y       z     vdW  Elec       q    Type
REMARK                         _______ _______ _______ _____ _____    ______ ____
ROOT
ATOM      1  C   LIG    1       -1.342 -10.254 -21.621  0.00  0.00    -0.174 A 
ATOM      2  C   LIG    1       -1.837  -9.821 -20.427  0.00  0.00    +0.027 A 
ATOM      3 CL   LIG    1       -1.536  -8.196 -19.900  0.00  0.00    +0.004 Cl
ATOM      4  C   LIG    1       -2.590 -10.696 -19.623  0.00  0.00    -0.083 A 
ATOM      5  C   LIG    1       -3.182 -10.432 -18.359  0.00  0.00    +0.135 A 
ATOM      6  C   LIG    1       -3.886 -11.395 -17.705  0.00  0.00    +0.096 A 
ATOM      7  C   LIG    1       -4.052 -12.673 -18.247  0.00  0.00    +0.192 A 
ATOM      8  C   LIG    1       -3.488 -12.967 -19.477  0.00  0.00    -0.013 A 
ATOM      9  C   LIG    1       -2.773 -11.997 -20.147  0.00  0.00    -0.090 A 
ATOM     10  S   LIG    1       -1.917 -11.942 -21.701  0.00  0.00    +0.214 S 
ENDROOT
BRANCH   8  11
ATOM     11  N   LIG    1       -3.651 -14.314 -20.069  0.00  0.00    +0.023 N 
ATOM     12  O   LIG    1       -4.195 -14.443 -21.139  0.00  0.00    -0.110 OA
ATOM     13  O   LIG    1       -3.238 -15.286 -19.480  0.00  0.00    -0.125 OA
ENDBRANCH   8  11
BRANCH   1  14
ATOM     14  C   LIG    1       -0.542  -9.516 -22.599  0.00  0.00    +0.546 C 
ATOM     15  O   LIG    1        0.651  -9.363 -22.418  0.00  0.00    -0.459 OA
BRANCH  14  17
ATOM     16  C   LIG    1       -1.870  -7.794 -23.540  0.00  0.00    +0.282 C 
ATOM     17  O   LIG    1       -1.127  -9.004 -23.702  0.00  0.00    -0.343 OA
ENDBRANCH  14  17
ENDBRANCH   1  14
BRANCH   6  18
ATOM     18  O   LIG    1       -4.440 -11.108 -16.496  0.00  0.00    -0.469 OA
ATOM     19  H   LIG    1       -3.793 -10.924 -15.801  0.00  0.00    +0.401 HD
ENDBRANCH   6  18
BRANCH   7  20
ATOM     20  O   LIG    1       -4.758 -13.618 -17.573  0.00  0.00    -0.467 OA
ATOM     21  H   LIG    1       -4.817 -14.467 -18.033  0.00  0.00    +0.412 HD
ENDBRANCH   7  20
TORSDOF 5
ENDMDL
MODEL 8
REMARK VINA RESULT:      -4.8      4.653      7.509
REMARK  Name = CHEMBL1089504
REMARK                            x       y       z     vdW  Elec       q    Type
REMARK                         _______ _______ _______ _____ _____    ______ ____
ROOT
ATOM      1  C   LIG    1       -2.756  -9.495 -22.560  0.00  0.00    -0.174 A 
ATOM      2  C   LIG    1       -1.793  -9.129 -21.668  0.00  0.00    +0.027 A 
ATOM      3 CL   LIG    1       -1.604 -10.008 -20.184  0.00  0.00    +0.004 Cl
ATOM      4  C   LIG    1       -0.953  -8.037 -21.954  0.00  0.00    -0.083 A 
ATOM      5  C   LIG    1        0.097  -7.509 -21.156  0.00  0.00    +0.135 A 
ATOM      6  C   LIG    1        0.821  -6.438 -21.580  0.00  0.00    +0.096 A 
ATOM      7  C   LIG    1        0.561  -5.820 -22.807  0.00  0.00    +0.192 A 
ATOM      8  C   LIG    1       -0.455  -6.307 -23.610  0.00  0.00    -0.013 A 
ATOM      9  C   LIG    1       -1.195  -7.392 -23.189  0.00  0.00    -0.090 A 
ATOM     10  S   LIG    1       -2.541  -8.318 -23.885  0.00  0.00    +0.214 S 
ENDROOT
BRANCH   8  11
ATOM     11  N   LIG    1       -0.748  -5.667 -24.912  0.00  0.00    +0.023 N 
ATOM     12  O   LIG    1        0.057  -5.728 -25.811  0.00  0.00    -0.110 OA
ATOM     13  O   LIG    1       -1.794  -5.083 -25.077  0.00  0.00    -0.125 OA
ENDBRANCH   8  11
BRANCH   1  14
ATOM     14  C   LIG    1       -3.725 -10.588 -22.461  0.00  0.00    +0.546 C 
ATOM     15  O   LIG    1       -4.917 -10.347 -22.480  0.00  0.00    -0.459 OA
BRANCH  14  17
ATOM     16  C   LIG    1       -3.898 -12.660 -21.324  0.00  0.00    +0.282 C 
ATOM     17  O   LIG    1       -3.297 -11.862 -22.346  0.00  0.00    -0.343 OA
ENDBRANCH  14  17
ENDBRANCH   1  14
BRANCH   6  18
ATOM     18  O   LIG    1        1.820  -5.958 -20.791  0.00  0.00    -0.469 OA
ATOM     19  H   LIG    1        2.662  -5.839 -21.252  0.00  0.00    +0.401 HD
ENDBRANCH   6  18
BRANCH   7  20
ATOM     20  O   LIG    1        1.298  -4.751 -23.206  0.00  0.00    -0.467 OA
ATOM     21  H   LIG    1        0.856  -4.190 -23.859  0.00  0.00    +0.412 HD
ENDBRANCH   7  20
TORSDOF 5
ENDMDL
MODEL 9
REMARK VINA RESULT:      -4.7     11.022     12.725
REMARK  Name = CHEMBL1089504
REMARK                            x       y       z     vdW  Elec       q    Type
REMARK                         _______ _______ _______ _____ _____    ______ ____
ROOT
ATOM      1  C   LIG    1        7.148  -7.037 -20.330  0.00  0.00    -0.174 A 
ATOM      2  C   LIG    1        6.828  -7.200 -19.015  0.00  0.00    +0.027 A 
ATOM      3 CL   LIG    1        6.296  -8.746 -18.436  0.00  0.00    +0.004 Cl
ATOM      4  C   LIG    1        6.929  -6.111 -18.130  0.00  0.00    -0.083 A 
ATOM      5  C   LIG    1        6.642  -6.084 -16.739  0.00  0.00    +0.135 A 
ATOM      6  C   LIG    1        6.793  -4.940 -16.020  0.00  0.00    +0.096 A 
ATOM      7  C   LIG    1        7.232  -3.754 -16.617  0.00  0.00    +0.192 A 
ATOM      8  C   LIG    1        7.521  -3.743 -17.970  0.00  0.00    -0.013 A 
ATOM      9  C   LIG    1        7.371  -4.898 -18.708  0.00  0.00    -0.090 A 
ATOM     10  S   LIG    1        7.628  -5.320 -20.413  0.00  0.00    +0.214 S 
ENDROOT
BRANCH   8  11
ATOM     11  N   LIG    1        7.987  -2.498 -18.623  0.00  0.00    +0.023 N 
ATOM     12  O   LIG    1        9.088  -2.064 -18.381  0.00  0.00    -0.110 OA
ATOM     13  O   LIG    1        7.265  -1.916 -19.398  0.00  0.00    -0.125 OA
ENDBRANCH   8  11
BRANCH   1  14
ATOM     14  C   LIG    1        7.113  -8.028 -21.408  0.00  0.00    +0.546 C 
ATOM     15  O   LIG    1        8.151  -8.455 -21.874  0.00  0.00    -0.459 OA
BRANCH  14  17
ATOM     16  C   LIG    1        4.974  -7.471 -22.261  0.00  0.00    +0.282 C 
ATOM     17  O   LIG    1        5.929  -8.465 -21.884  0.00  0.00    -0.343 OA
ENDBRANCH  14  17
ENDBRANCH   1  14
BRANCH   6  18
ATOM     18  O   LIG    1        6.509  -4.949 -14.689  0.00  0.00    -0.469 OA
ATOM     19  H   LIG    1        5.565  -5.021 -14.489  0.00  0.00    +0.401 HD
ENDBRANCH   6  18
BRANCH   7  20
ATOM     20  O   LIG    1        7.374  -2.624 -15.876  0.00  0.00    -0.467 OA
ATOM     21  H   LIG    1        6.810  -1.892 -16.164  0.00  0.00    +0.412 HD
ENDBRANCH   7  20
TORSDOF 5
ENDMDL
