MODEL 1
REMARK VINA RESULT:      -6.2      0.000      0.000
REMARK  Name = CHEMBL1089539
REMARK                            x       y       z     vdW  Elec       q    Type
REMARK                         _______ _______ _______ _____ _____    ______ ____
ROOT
ATOM      1  C   LIG    1       -2.779 -11.098 -21.234  0.00  0.00    -0.179 A 
ATOM      2  C   LIG    1       -2.789 -12.254 -20.513  0.00  0.00    +0.030 A 
ATOM      3 CL   LIG    1       -2.049 -13.686 -21.158  0.00  0.00    +0.005 Cl
ATOM      4  C   LIG    1       -3.399 -12.286 -19.247  0.00  0.00    -0.085 A 
ATOM      5  C   LIG    1       -3.510 -13.386 -18.355  0.00  0.00    +0.136 A 
ATOM      6  C   LIG    1       -4.138 -13.250 -17.157  0.00  0.00    +0.095 A 
ATOM      7  C   LIG    1       -4.694 -12.030 -16.759  0.00  0.00    +0.193 A 
ATOM      8  C   LIG    1       -4.605 -10.936 -17.602  0.00  0.00    -0.013 A 
ATOM      9  C   LIG    1       -3.971 -11.065 -18.818  0.00  0.00    -0.090 A 
ATOM     10  S   LIG    1       -3.633  -9.955 -20.162  0.00  0.00    +0.219 S 
ENDROOT
BRANCH   8  11
ATOM     11  N   LIG    1       -5.188  -9.636 -17.200  0.00  0.00    +0.022 N 
ATOM     12  O   LIG    1       -4.601  -8.608 -17.447  0.00  0.00    -0.109 OA
ATOM     13  O   LIG    1       -6.252  -9.602 -16.625  0.00  0.00    -0.124 OA
ENDBRANCH   8  11
BRANCH   1  14
ATOM     14  C   LIG    1       -2.204 -10.851 -22.558  0.00  0.00    +0.549 C 
ATOM     15  O   LIG    1       -2.755 -11.286 -23.550  0.00  0.00    -0.447 OA
BRANCH  14  16
ATOM     16  O   LIG    1       -1.063 -10.141 -22.676  0.00  0.00    -0.346 OA
BRANCH  16  17
ATOM     17  C   LIG    1       -1.173  -8.824 -23.222  0.00  0.00    +0.494 C 
BRANCH  17  18
ATOM     18  O   LIG    1       -1.455  -7.896 -22.173  0.00  0.00    -0.356 OA
BRANCH  18  19
ATOM     19  C   LIG    1       -0.483  -7.681 -21.273  0.00  0.00    +0.458 C 
ATOM     20  O   LIG    1       -0.644  -8.003 -20.119  0.00  0.00    -0.489 OA
BRANCH  19  21
ATOM     21  C   LIG    1        0.812  -7.039 -21.701  0.00  0.00    +0.102 C 
BRANCH  21  23
ATOM     22  C   LIG    1        3.080  -7.161 -20.660  0.00  0.00    +0.025 C 
ATOM     23  C   LIG    1        1.980  -7.965 -21.355  0.00  0.00    +0.030 C 
ENDBRANCH  21  23
ENDBRANCH  19  21
ENDBRANCH  18  19
ENDBRANCH  17  18
ENDBRANCH  16  17
ENDBRANCH  14  16
ENDBRANCH   1  14
BRANCH   6  24
ATOM     24  O   LIG    1       -4.227 -14.324 -16.326  0.00  0.00    -0.468 OA
ATOM     25  H   LIG    1       -3.376 -14.732 -16.118  0.00  0.00    +0.401 HD
ENDBRANCH   6  24
BRANCH   7  26
ATOM     26  O   LIG    1       -5.318 -11.920 -15.556  0.00  0.00    -0.467 OA
ATOM     27  H   LIG    1       -5.898 -11.150 -15.483  0.00  0.00    +0.412 HD
ENDBRANCH   7  26
TORSDOF 10
ENDMDL
MODEL 2
REMARK VINA RESULT:      -6.2      6.928     11.050
REMARK  Name = CHEMBL1089539
REMARK                            x       y       z     vdW  Elec       q    Type
REMARK                         _______ _______ _______ _____ _____    ______ ____
ROOT
ATOM      1  C   LIG    1        6.020  -7.409 -19.109  0.00  0.00    -0.179 A 
ATOM      2  C   LIG    1        6.667  -6.374 -19.715  0.00  0.00    +0.030 A 
ATOM      3 CL   LIG    1        7.037  -6.454 -21.409  0.00  0.00    +0.005 Cl
ATOM      4  C   LIG    1        7.033  -5.242 -18.967  0.00  0.00    -0.085 A 
ATOM      5  C   LIG    1        7.707  -4.074 -19.416  0.00  0.00    +0.136 A 
ATOM      6  C   LIG    1        7.991  -3.059 -18.557  0.00  0.00    +0.095 A 
ATOM      7  C   LIG    1        7.633  -3.125 -17.206  0.00  0.00    +0.193 A 
ATOM      8  C   LIG    1        6.976  -4.247 -16.732  0.00  0.00    -0.013 A 
ATOM      9  C   LIG    1        6.684  -5.280 -17.596  0.00  0.00    -0.090 A 
ATOM     10  S   LIG    1        5.873  -6.850 -17.420  0.00  0.00    +0.219 S 
ENDROOT
BRANCH   8  11
ATOM     11  N   LIG    1        6.588  -4.337 -15.306  0.00  0.00    +0.022 N 
ATOM     12  O   LIG    1        6.976  -5.262 -14.631  0.00  0.00    -0.109 OA
ATOM     13  O   LIG    1        5.884  -3.485 -14.816  0.00  0.00    -0.124 OA
ENDBRANCH   8  11
BRANCH   1  14
ATOM     14  C   LIG    1        5.554  -8.666 -19.698  0.00  0.00    +0.549 C 
ATOM     15  O   LIG    1        6.020  -9.723 -19.321  0.00  0.00    -0.447 OA
BRANCH  14  16
ATOM     16  O   LIG    1        4.606  -8.650 -20.657  0.00  0.00    -0.346 OA
BRANCH  16  17
ATOM     17  C   LIG    1        3.246  -8.751 -20.228  0.00  0.00    +0.494 C 
BRANCH  17  18
ATOM     18  O   LIG    1        2.380  -8.376 -21.301  0.00  0.00    -0.356 OA
BRANCH  18  19
ATOM     19  C   LIG    1        1.631  -7.276 -21.123  0.00  0.00    +0.458 C 
ATOM     20  O   LIG    1        2.099  -6.308 -20.572  0.00  0.00    -0.489 OA
BRANCH  19  21
ATOM     21  C   LIG    1        0.206  -7.248 -21.611  0.00  0.00    +0.102 C 
BRANCH  21  23
ATOM     22  C   LIG    1       -1.186  -8.479 -19.940  0.00  0.00    +0.025 C 
ATOM     23  C   LIG    1       -0.471  -8.582 -21.289  0.00  0.00    +0.030 C 
ENDBRANCH  21  23
ENDBRANCH  19  21
ENDBRANCH  18  19
ENDBRANCH  17  18
ENDBRANCH  16  17
ENDBRANCH  14  16
ENDBRANCH   1  14
BRANCH   6  24
ATOM     24  O   LIG    1        8.638  -1.956 -19.020  0.00  0.00    -0.468 OA
ATOM     25  H   LIG    1        9.210  -1.533 -18.366  0.00  0.00    +0.401 HD
ENDBRANCH   6  24
BRANCH   7  26
ATOM     26  O   LIG    1        7.929  -2.098 -16.367  0.00  0.00    -0.467 OA
ATOM     27  H   LIG    1        7.409  -2.095 -15.551  0.00  0.00    +0.412 HD
ENDBRANCH   7  26
TORSDOF 10
ENDMDL
MODEL 3
REMARK VINA RESULT:      -5.8      2.735      4.918
REMARK  Name = CHEMBL1089539
REMARK                            x       y       z     vdW  Elec       q    Type
REMARK                         _______ _______ _______ _____ _____    ______ ____
ROOT
ATOM      1  C   LIG    1       -2.927 -11.622 -21.421  0.00  0.00    -0.179 A 
ATOM      2  C   LIG    1       -2.927 -12.705 -20.594  0.00  0.00    +0.030 A 
ATOM      3 CL   LIG    1       -2.261 -14.214 -21.139  0.00  0.00    +0.005 Cl
ATOM      4  C   LIG    1       -3.465 -12.600 -19.300  0.00  0.00    -0.085 A 
ATOM      5  C   LIG    1       -3.555 -13.608 -18.303  0.00  0.00    +0.136 A 
ATOM      6  C   LIG    1       -4.111 -13.342 -17.091  0.00  0.00    +0.095 A 
ATOM      7  C   LIG    1       -4.612 -12.074 -16.782  0.00  0.00    +0.193 A 
ATOM      8  C   LIG    1       -4.543 -11.067 -17.729  0.00  0.00    -0.013 A 
ATOM      9  C   LIG    1       -3.981 -11.328 -18.959  0.00  0.00    -0.090 A 
ATOM     10  S   LIG    1       -3.691 -10.359 -20.418  0.00  0.00    +0.219 S 
ENDROOT
BRANCH   8  11
ATOM     11  N   LIG    1       -5.069  -9.717 -17.421  0.00  0.00    +0.022 N 
ATOM     12  O   LIG    1       -6.102  -9.597 -16.805  0.00  0.00    -0.109 OA
ATOM     13  O   LIG    1       -4.465  -8.735 -17.786  0.00  0.00    -0.124 OA
ENDBRANCH   8  11
BRANCH   1  14
ATOM     14  C   LIG    1       -2.421 -11.518 -22.791  0.00  0.00    +0.549 C 
ATOM     15  O   LIG    1       -1.227 -11.411 -22.991  0.00  0.00    -0.447 OA
BRANCH  14  16
ATOM     16  O   LIG    1       -3.279 -11.541 -23.831  0.00  0.00    -0.346 OA
BRANCH  16  17
ATOM     17  C   LIG    1       -3.499 -12.805 -24.463  0.00  0.00    +0.494 C 
BRANCH  17  18
ATOM     18  O   LIG    1       -4.891 -13.124 -24.416  0.00  0.00    -0.356 OA
BRANCH  18  19
ATOM     19  C   LIG    1       -5.343 -13.714 -23.298  0.00  0.00    +0.458 C 
ATOM     20  O   LIG    1       -5.061 -14.865 -23.065  0.00  0.00    -0.489 OA
BRANCH  19  21
ATOM     21  C   LIG    1       -6.201 -12.939 -22.332  0.00  0.00    +0.102 C 
BRANCH  21  23
ATOM     22  C   LIG    1       -8.223 -13.715 -23.578  0.00  0.00    +0.025 C 
ATOM     23  C   LIG    1       -7.484 -12.490 -23.034  0.00  0.00    +0.030 C 
ENDBRANCH  21  23
ENDBRANCH  19  21
ENDBRANCH  18  19
ENDBRANCH  17  18
ENDBRANCH  16  17
ENDBRANCH  14  16
ENDBRANCH   1  14
BRANCH   6  24
ATOM     24  O   LIG    1       -4.181 -14.331 -16.159  0.00  0.00    -0.468 OA
ATOM     25  H   LIG    1       -4.913 -14.947 -16.295  0.00  0.00    +0.401 HD
ENDBRANCH   6  24
BRANCH   7  26
ATOM     26  O   LIG    1       -5.165 -11.833 -15.563  0.00  0.00    -0.467 OA
ATOM     27  H   LIG    1       -6.109 -12.036 -15.513  0.00  0.00    +0.412 HD
ENDBRANCH   7  26
TORSDOF 10
ENDMDL
MODEL 4
REMARK VINA RESULT:      -5.6      4.488      7.454
REMARK  Name = CHEMBL1089539
REMARK                            x       y       z     vdW  Elec       q    Type
REMARK                         _______ _______ _______ _____ _____    ______ ____
ROOT
ATOM      1  C   LIG    1       -2.491 -14.908 -20.828  0.00  0.00    -0.179 A 
ATOM      2  C   LIG    1       -2.999 -15.002 -19.567  0.00  0.00    +0.030 A 
ATOM      3 CL   LIG    1       -3.127 -16.553 -18.796  0.00  0.00    +0.005 Cl
ATOM      4  C   LIG    1       -3.418 -13.843 -18.892  0.00  0.00    -0.085 A 
ATOM      5  C   LIG    1       -3.969 -13.740 -17.586  0.00  0.00    +0.136 A 
ATOM      6  C   LIG    1       -4.328 -12.532 -17.074  0.00  0.00    +0.095 A 
ATOM      7  C   LIG    1       -4.170 -11.353 -17.809  0.00  0.00    +0.193 A 
ATOM      8  C   LIG    1       -3.637 -11.415 -19.085  0.00  0.00    -0.013 A 
ATOM      9  C   LIG    1       -3.270 -12.634 -19.611  0.00  0.00    -0.090 A 
ATOM     10  S   LIG    1       -2.563 -13.155 -21.154  0.00  0.00    +0.219 S 
ENDROOT
BRANCH   8  11
ATOM     11  N   LIG    1       -3.462 -10.177 -19.881  0.00  0.00    +0.022 N 
ATOM     12  O   LIG    1       -3.991 -10.075 -20.963  0.00  0.00    -0.109 OA
ATOM     13  O   LIG    1       -2.790  -9.271 -19.447  0.00  0.00    -0.124 OA
ENDBRANCH   8  11
BRANCH   1  14
ATOM     14  C   LIG    1       -2.002 -15.979 -21.699  0.00  0.00    +0.549 C 
ATOM     15  O   LIG    1       -0.904 -15.889 -22.214  0.00  0.00    -0.447 OA
BRANCH  14  16
ATOM     16  O   LIG    1       -2.768 -17.065 -21.929  0.00  0.00    -0.346 OA
BRANCH  16  17
ATOM     17  C   LIG    1       -2.102 -18.328 -21.989  0.00  0.00    +0.494 C 
BRANCH  17  18
ATOM     18  O   LIG    1       -2.395 -19.077 -20.808  0.00  0.00    -0.356 OA
BRANCH  18  19
ATOM     19  C   LIG    1       -3.432 -19.926 -20.866  0.00  0.00    +0.458 C 
ATOM     20  O   LIG    1       -3.304 -21.002 -21.402  0.00  0.00    -0.489 OA
BRANCH  19  21
ATOM     21  C   LIG    1       -4.758 -19.539 -20.263  0.00  0.00    +0.102 C 
BRANCH  21  23
ATOM     22  C   LIG    1       -5.870 -18.714 -22.343  0.00  0.00    +0.025 C 
ATOM     23  C   LIG    1       -5.876 -19.807 -21.273  0.00  0.00    +0.030 C 
ENDBRANCH  21  23
ENDBRANCH  19  21
ENDBRANCH  18  19
ENDBRANCH  17  18
ENDBRANCH  16  17
ENDBRANCH  14  16
ENDBRANCH   1  14
BRANCH   6  24
ATOM     24  O   LIG    1       -4.853 -12.469 -15.821  0.00  0.00    -0.468 OA
ATOM     25  H   LIG    1       -4.230 -12.159 -15.150  0.00  0.00    +0.401 HD
ENDBRANCH   6  24
BRANCH   7  26
ATOM     26  O   LIG    1       -4.537 -10.158 -17.276  0.00  0.00    -0.467 OA
ATOM     27  H   LIG    1       -4.594  -9.440 -17.923  0.00  0.00    +0.412 HD
ENDBRANCH   7  26
TORSDOF 10
ENDMDL
MODEL 5
REMARK VINA RESULT:      -5.6      3.401      8.120
REMARK  Name = CHEMBL1089539
REMARK                            x       y       z     vdW  Elec       q    Type
REMARK                         _______ _______ _______ _____ _____    ______ ____
ROOT
ATOM      1  C   LIG    1       -1.863  -9.187 -22.252  0.00  0.00    -0.179 A 
ATOM      2  C   LIG    1       -2.148  -8.273 -23.222  0.00  0.00    +0.030 A 
ATOM      3 CL   LIG    1       -3.587  -8.444 -24.179  0.00  0.00    +0.005 Cl
ATOM      4  C   LIG    1       -1.278  -7.193 -23.446  0.00  0.00    -0.085 A 
ATOM      5  C   LIG    1       -1.404  -6.149 -24.402  0.00  0.00    +0.136 A 
ATOM      6  C   LIG    1       -0.465  -5.170 -24.492  0.00  0.00    +0.095 A 
ATOM      7  C   LIG    1        0.654  -5.152 -23.652  0.00  0.00    +0.193 A 
ATOM      8  C   LIG    1        0.810  -6.153 -22.709  0.00  0.00    -0.013 A 
ATOM      9  C   LIG    1       -0.137  -7.149 -22.611  0.00  0.00    -0.090 A 
ATOM     10  S   LIG    1       -0.329  -8.576 -21.573  0.00  0.00    +0.219 S 
ENDROOT
BRANCH   8  11
ATOM     11  N   LIG    1        1.988  -6.154 -21.811  0.00  0.00    +0.022 N 
ATOM     12  O   LIG    1        3.103  -6.141 -22.277  0.00  0.00    -0.109 OA
ATOM     13  O   LIG    1        1.833  -6.167 -20.612  0.00  0.00    -0.124 OA
ENDBRANCH   8  11
BRANCH   1  14
ATOM     14  C   LIG    1       -2.627 -10.373 -21.860  0.00  0.00    +0.549 C 
ATOM     15  O   LIG    1       -2.527 -11.400 -22.502  0.00  0.00    -0.447 OA
BRANCH  14  16
ATOM     16  O   LIG    1       -3.441 -10.325 -20.785  0.00  0.00    -0.346 OA
BRANCH  16  17
ATOM     17  C   LIG    1       -3.506 -11.497 -19.969  0.00  0.00    +0.494 C 
BRANCH  17  18
ATOM     18  O   LIG    1       -3.218 -11.149 -18.613  0.00  0.00    -0.356 OA
BRANCH  18  19
ATOM     19  C   LIG    1       -4.089 -11.563 -17.680  0.00  0.00    +0.458 C 
ATOM     20  O   LIG    1       -4.408 -10.824 -16.779  0.00  0.00    -0.489 OA
BRANCH  19  21
ATOM     21  C   LIG    1       -4.672 -12.951 -17.757  0.00  0.00    +0.102 C 
BRANCH  21  23
ATOM     22  C   LIG    1       -3.215 -14.884 -18.376  0.00  0.00    +0.025 C 
ATOM     23  C   LIG    1       -3.651 -13.963 -17.234  0.00  0.00    +0.030 C 
ENDBRANCH  21  23
ENDBRANCH  19  21
ENDBRANCH  18  19
ENDBRANCH  17  18
ENDBRANCH  16  17
ENDBRANCH  14  16
ENDBRANCH   1  14
BRANCH   6  24
ATOM     24  O   LIG    1       -0.616  -4.185 -25.419  0.00  0.00    -0.468 OA
ATOM     25  H   LIG    1       -0.446  -3.296 -25.079  0.00  0.00    +0.401 HD
ENDBRANCH   6  24
BRANCH   7  26
ATOM     26  O   LIG    1        1.579  -4.163 -23.763  0.00  0.00    -0.467 OA
ATOM     27  H   LIG    1        2.450  -4.470 -24.052  0.00  0.00    +0.412 HD
ENDBRANCH   7  26
TORSDOF 10
ENDMDL
MODEL 6
REMARK VINA RESULT:      -5.6      7.080     10.909
REMARK  Name = CHEMBL1089539
REMARK                            x       y       z     vdW  Elec       q    Type
REMARK                         _______ _______ _______ _____ _____    ______ ____
ROOT
ATOM      1  C   LIG    1        6.394  -6.991 -20.370  0.00  0.00    -0.179 A 
ATOM      2  C   LIG    1        6.257  -7.170 -19.026  0.00  0.00    +0.030 A 
ATOM      3 CL   LIG    1        5.660  -8.679 -18.408  0.00  0.00    +0.005 Cl
ATOM      4  C   LIG    1        6.599  -6.133 -18.142  0.00  0.00    -0.085 A 
ATOM      5  C   LIG    1        6.525  -6.131 -16.723  0.00  0.00    +0.136 A 
ATOM      6  C   LIG    1        6.896  -5.035 -16.008  0.00  0.00    +0.095 A 
ATOM      7  C   LIG    1        7.362  -3.877 -16.638  0.00  0.00    +0.193 A 
ATOM      8  C   LIG    1        7.447  -3.842 -18.019  0.00  0.00    -0.013 A 
ATOM      9  C   LIG    1        7.073  -4.947 -18.751  0.00  0.00    -0.090 A 
ATOM     10  S   LIG    1        7.030  -5.327 -20.485  0.00  0.00    +0.219 S 
ENDROOT
BRANCH   8  11
ATOM     11  N   LIG    1        7.938  -2.625 -18.705  0.00  0.00    +0.022 N 
ATOM     12  O   LIG    1        9.107  -2.324 -18.640  0.00  0.00    -0.109 OA
ATOM     13  O   LIG    1        7.168  -1.932 -19.330  0.00  0.00    -0.124 OA
ENDBRANCH   8  11
BRANCH   1  14
ATOM     14  C   LIG    1        6.099  -7.932 -21.453  0.00  0.00    +0.549 C 
ATOM     15  O   LIG    1        6.912  -8.783 -21.756  0.00  0.00    -0.447 OA
BRANCH  14  16
ATOM     16  O   LIG    1        4.926  -7.853 -22.113  0.00  0.00    -0.346 OA
BRANCH  16  17
ATOM     17  C   LIG    1        3.950  -8.858 -21.825  0.00  0.00    +0.494 C 
BRANCH  17  18
ATOM     18  O   LIG    1        3.201  -8.475 -20.670  0.00  0.00    -0.356 OA
BRANCH  18  19
ATOM     19  C   LIG    1        2.303  -7.491 -20.826  0.00  0.00    +0.458 C 
ATOM     20  O   LIG    1        2.576  -6.363 -20.491  0.00  0.00    -0.489 OA
BRANCH  19  21
ATOM     21  C   LIG    1        0.951  -7.792 -21.421  0.00  0.00    +0.102 C 
BRANCH  21  23
ATOM     22  C   LIG    1       -1.090  -8.473 -20.151  0.00  0.00    +0.025 C 
ATOM     23  C   LIG    1        0.289  -8.926 -20.637  0.00  0.00    +0.030 C 
ENDBRANCH  21  23
ENDBRANCH  19  21
ENDBRANCH  18  19
ENDBRANCH  17  18
ENDBRANCH  16  17
ENDBRANCH  14  16
ENDBRANCH   1  14
BRANCH   6  24
ATOM     24  O   LIG    1        6.813  -5.067 -14.650  0.00  0.00    -0.468 OA
ATOM     25  H   LIG    1        6.754  -4.193 -14.240  0.00  0.00    +0.401 HD
ENDBRANCH   6  24
BRANCH   7  26
ATOM     26  O   LIG    1        7.727  -2.794 -15.900  0.00  0.00    -0.467 OA
ATOM     27  H   LIG    1        8.681  -2.639 -15.876  0.00  0.00    +0.412 HD
ENDBRANCH   7  26
TORSDOF 10
ENDMDL
MODEL 7
REMARK VINA RESULT:      -5.3      4.771      6.881
REMARK  Name = CHEMBL1089539
REMARK                            x       y       z     vdW  Elec       q    Type
REMARK                         _______ _______ _______ _____ _____    ______ ____
ROOT
ATOM      1  C   LIG    1       -4.495 -11.532 -22.777  0.00  0.00    -0.179 A 
ATOM      2  C   LIG    1       -5.136 -10.501 -23.396  0.00  0.00    +0.030 A 
ATOM      3 CL   LIG    1       -4.229  -9.146 -23.991  0.00  0.00    +0.005 Cl
ATOM      4  C   LIG    1       -6.533 -10.537 -23.551  0.00  0.00    -0.085 A 
ATOM      5  C   LIG    1       -7.371  -9.566 -24.163  0.00  0.00    +0.136 A 
ATOM      6  C   LIG    1       -8.717  -9.753 -24.232  0.00  0.00    +0.095 A 
ATOM      7  C   LIG    1       -9.322 -10.899 -23.708  0.00  0.00    +0.193 A 
ATOM      8  C   LIG    1       -8.536 -11.866 -23.104  0.00  0.00    -0.013 A 
ATOM      9  C   LIG    1       -7.173 -11.685 -23.030  0.00  0.00    -0.090 A 
ATOM     10  S   LIG    1       -5.831 -12.643 -22.371  0.00  0.00    +0.219 S 
ENDROOT
BRANCH   8  11
ATOM     11  N   LIG    1       -9.158 -13.087 -22.542  0.00  0.00    +0.022 N 
ATOM     12  O   LIG    1       -9.932 -13.001 -21.618  0.00  0.00    -0.109 OA
ATOM     13  O   LIG    1       -8.891 -14.170 -23.008  0.00  0.00    -0.124 OA
ENDBRANCH   8  11
BRANCH   1  14
ATOM     14  C   LIG    1       -3.063 -11.692 -22.515  0.00  0.00    +0.549 C 
ATOM     15  O   LIG    1       -2.291 -11.856 -23.439  0.00  0.00    -0.447 OA
BRANCH  14  16
ATOM     16  O   LIG    1       -2.601 -11.657 -21.248  0.00  0.00    -0.346 OA
BRANCH  16  17
ATOM     17  C   LIG    1       -3.250 -10.759 -20.345  0.00  0.00    +0.494 C 
BRANCH  17  18
ATOM     18  O   LIG    1       -2.868 -11.073 -19.005  0.00  0.00    -0.356 OA
BRANCH  18  19
ATOM     19  C   LIG    1       -3.846 -11.444 -18.164  0.00  0.00    +0.458 C 
ATOM     20  O   LIG    1       -4.169 -10.719 -17.253  0.00  0.00    -0.489 OA
BRANCH  19  21
ATOM     21  C   LIG    1       -4.544 -12.766 -18.357  0.00  0.00    +0.102 C 
BRANCH  21  23
ATOM     22  C   LIG    1       -3.169 -14.851 -18.410  0.00  0.00    +0.025 C 
ATOM     23  C   LIG    1       -3.862 -13.834 -17.501  0.00  0.00    +0.030 C 
ENDBRANCH  21  23
ENDBRANCH  19  21
ENDBRANCH  18  19
ENDBRANCH  17  18
ENDBRANCH  16  17
ENDBRANCH  14  16
ENDBRANCH   1  14
BRANCH   6  24
ATOM     24  O   LIG    1       -9.491  -8.803 -24.824  0.00  0.00    -0.468 OA
ATOM     25  H   LIG    1       -9.155  -8.499 -25.678  0.00  0.00    +0.401 HD
ENDBRANCH   6  24
BRANCH   7  26
ATOM     26  O   LIG    1      -10.669 -11.062 -23.788  0.00  0.00    -0.467 OA
ATOM     27  H   LIG    1      -11.119 -10.370 -24.293  0.00  0.00    +0.412 HD
ENDBRANCH   7  26
TORSDOF 10
ENDMDL
MODEL 8
REMARK VINA RESULT:      -5.3      3.205      7.655
REMARK  Name = CHEMBL1089539
REMARK                            x       y       z     vdW  Elec       q    Type
REMARK                         _______ _______ _______ _____ _____    ______ ____
ROOT
ATOM      1  C   LIG    1       -2.639  -9.580 -22.247  0.00  0.00    -0.179 A 
ATOM      2  C   LIG    1       -1.644  -9.173 -21.409  0.00  0.00    +0.030 A 
ATOM      3 CL   LIG    1       -1.388  -9.996 -19.902  0.00  0.00    +0.005 Cl
ATOM      4  C   LIG    1       -0.827  -8.086 -21.766  0.00  0.00    -0.085 A 
ATOM      5  C   LIG    1        0.249  -7.521 -21.032  0.00  0.00    +0.136 A 
ATOM      6  C   LIG    1        0.946  -6.460 -21.521  0.00  0.00    +0.095 A 
ATOM      7  C   LIG    1        0.631  -5.890 -22.759  0.00  0.00    +0.193 A 
ATOM      8  C   LIG    1       -0.412  -6.414 -23.503  0.00  0.00    -0.013 A 
ATOM      9  C   LIG    1       -1.122  -7.488 -23.014  0.00  0.00    -0.090 A 
ATOM     10  S   LIG    1       -2.487  -8.450 -23.621  0.00  0.00    +0.219 S 
ENDROOT
BRANCH   8  11
ATOM     11  N   LIG    1       -0.762  -5.824 -24.815  0.00  0.00    +0.022 N 
ATOM     12  O   LIG    1        0.009  -5.912 -25.742  0.00  0.00    -0.109 OA
ATOM     13  O   LIG    1       -1.819  -5.255 -24.959  0.00  0.00    -0.124 OA
ENDBRANCH   8  11
BRANCH   1  14
ATOM     14  C   LIG    1       -3.593 -10.676 -22.069  0.00  0.00    +0.549 C 
ATOM     15  O   LIG    1       -3.884 -11.387 -23.012  0.00  0.00    -0.447 OA
BRANCH  14  16
ATOM     16  O   LIG    1       -4.148 -10.898 -20.860  0.00  0.00    -0.346 OA
BRANCH  16  17
ATOM     17  C   LIG    1       -4.675 -12.205 -20.618  0.00  0.00    +0.494 C 
BRANCH  17  18
ATOM     18  O   LIG    1       -3.713 -12.980 -19.900  0.00  0.00    -0.356 OA
BRANCH  18  19
ATOM     19  C   LIG    1       -3.932 -13.158 -18.588  0.00  0.00    +0.458 C 
ATOM     20  O   LIG    1       -4.499 -12.305 -17.948  0.00  0.00    -0.489 OA
BRANCH  19  21
ATOM     21  C   LIG    1       -3.471 -14.425 -17.913  0.00  0.00    +0.102 C 
BRANCH  21  23
ATOM     22  C   LIG    1       -1.701 -15.846 -18.957  0.00  0.00    +0.025 C 
ATOM     23  C   LIG    1       -3.190 -15.494 -18.970  0.00  0.00    +0.030 C 
ENDBRANCH  21  23
ENDBRANCH  19  21
ENDBRANCH  18  19
ENDBRANCH  17  18
ENDBRANCH  16  17
ENDBRANCH  14  16
ENDBRANCH   1  14
BRANCH   6  24
ATOM     24  O   LIG    1        1.971  -5.943 -20.792  0.00  0.00    -0.468 OA
ATOM     25  H   LIG    1        1.716  -5.199 -20.229  0.00  0.00    +0.401 HD
ENDBRANCH   6  24
BRANCH   7  26
ATOM     26  O   LIG    1        1.341  -4.829 -23.226  0.00  0.00    -0.467 OA
ATOM     27  H   LIG    1        1.199  -4.644 -24.165  0.00  0.00    +0.412 HD
ENDBRANCH   7  26
TORSDOF 10
ENDMDL
MODEL 9
REMARK VINA RESULT:      -5.3      2.632      3.661
REMARK  Name = CHEMBL1089539
REMARK                            x       y       z     vdW  Elec       q    Type
REMARK                         _______ _______ _______ _____ _____    ______ ____
ROOT
ATOM      1  C   LIG    1       -1.144 -10.309 -21.651  0.00  0.00    -0.179 A 
ATOM      2  C   LIG    1       -1.674  -9.829 -20.491  0.00  0.00    +0.030 A 
ATOM      3 CL   LIG    1       -1.356  -8.194 -20.002  0.00  0.00    +0.005 Cl
ATOM      4  C   LIG    1       -2.479 -10.660 -19.692  0.00  0.00    -0.085 A 
ATOM      5  C   LIG    1       -3.114 -10.343 -18.461  0.00  0.00    +0.136 A 
ATOM      6  C   LIG    1       -3.864 -11.269 -17.806  0.00  0.00    +0.095 A 
ATOM      7  C   LIG    1       -4.039 -12.560 -18.317  0.00  0.00    +0.193 A 
ATOM      8  C   LIG    1       -3.435 -12.904 -19.514  0.00  0.00    -0.013 A 
ATOM      9  C   LIG    1       -2.673 -11.972 -20.183  0.00  0.00    -0.090 A 
ATOM     10  S   LIG    1       -1.755 -11.985 -21.703  0.00  0.00    +0.219 S 
ENDROOT
BRANCH   8  11
ATOM     11  N   LIG    1       -3.607 -14.265 -20.071  0.00  0.00    +0.022 N 
ATOM     12  O   LIG    1       -3.250 -15.228 -19.433  0.00  0.00    -0.109 OA
ATOM     13  O   LIG    1       -4.105 -14.413 -21.162  0.00  0.00    -0.124 OA
ENDBRANCH   8  11
BRANCH   1  14
ATOM     14  C   LIG    1       -0.289  -9.619 -22.620  0.00  0.00    +0.549 C 
ATOM     15  O   LIG    1       -0.775  -8.825 -23.401  0.00  0.00    -0.447 OA
BRANCH  14  16
ATOM     16  O   LIG    1        1.037  -9.864 -22.644  0.00  0.00    -0.346 OA
BRANCH  16  17
ATOM     17  C   LIG    1        1.805  -9.387 -21.536  0.00  0.00    +0.494 C 
BRANCH  17  18
ATOM     18  O   LIG    1        2.509  -8.204 -21.921  0.00  0.00    -0.356 OA
BRANCH  18  19
ATOM     19  C   LIG    1        2.213  -7.076 -21.257  0.00  0.00    +0.458 C 
ATOM     20  O   LIG    1        2.843  -6.771 -20.272  0.00  0.00    -0.489 OA
BRANCH  19  21
ATOM     21  C   LIG    1        1.096  -6.189 -21.741  0.00  0.00    +0.102 C 
BRANCH  21  23
ATOM     22  C   LIG    1        0.483  -4.644 -23.607  0.00  0.00    +0.025 C 
ATOM     23  C   LIG    1        1.291  -5.886 -23.228  0.00  0.00    +0.030 C 
ENDBRANCH  21  23
ENDBRANCH  19  21
ENDBRANCH  18  19
ENDBRANCH  17  18
ENDBRANCH  16  17
ENDBRANCH  14  16
ENDBRANCH   1  14
BRANCH   6  24
ATOM     24  O   LIG    1       -4.458 -10.933 -16.629  0.00  0.00    -0.468 OA
ATOM     25  H   LIG    1       -3.850 -10.566 -15.974  0.00  0.00    +0.401 HD
ENDBRANCH   6  24
BRANCH   7  26
ATOM     26  O   LIG    1       -4.794 -13.468 -17.643  0.00  0.00    -0.467 OA
ATOM     27  H   LIG    1       -4.810 -13.331 -16.685  0.00  0.00    +0.412 HD
ENDBRANCH   7  26
TORSDOF 10
ENDMDL
