MODEL 1
REMARK VINA RESULT:      -8.0      0.000      0.000
REMARK  Name = CHEMBL353188
REMARK                            x       y       z     vdW  Elec       q    Type
REMARK                         _______ _______ _______ _____ _____    ______ ____
ROOT
ATOM      1  C   LIG    1       -6.316  -1.274 -18.537  0.00  0.00    +0.112 A 
ATOM      2  C   LIG    1       -5.772  -1.997 -19.584  0.00  0.00    -0.059 A 
ATOM      3  C   LIG    1       -4.815  -1.423 -20.400  0.00  0.00    +0.077 A 
ATOM      4  C   LIG    1       -4.398  -0.122 -20.170  0.00  0.00    +0.085 A 
ATOM      5  C   LIG    1       -4.945   0.604 -19.117  0.00  0.00    +0.138 A 
ATOM      6  C   LIG    1       -5.904   0.024 -18.303  0.00  0.00    -0.063 A 
ENDROOT
BRANCH   6   7
ATOM      7  N   LIG    1       -6.489   0.794 -17.182  0.00  0.00    +0.038 N 
ATOM      8  O   LIG    1       -6.400   0.375 -16.051  0.00  0.00    -0.142 OA
ATOM      9  O   LIG    1       -7.055   1.840 -17.397  0.00  0.00    -0.164 OA
ENDBRANCH   6   7
BRANCH   4  10
ATOM     10  O   LIG    1       -3.456   0.444 -20.971  0.00  0.00    -0.475 OA
ATOM     11  H   LIG    1       -2.865   1.056 -20.511  0.00  0.00    +0.395 HD
ENDBRANCH   4  10
BRANCH   5  12
ATOM     12  O   LIG    1       -4.538   1.882 -18.888  0.00  0.00    -0.464 OA
ATOM     13  H   LIG    1       -4.627   2.466 -19.653  0.00  0.00    +0.399 HD
ENDBRANCH   5  12
BRANCH   2  14
ATOM     14  C   LIG    1       -6.225  -3.411 -19.836  0.00  0.00    +0.085 C 
BRANCH  14  15
ATOM     15  C   LIG    1       -7.638  -3.400 -20.421  0.00  0.00    +0.003 C 
BRANCH  15  16
ATOM     16  C   LIG    1       -8.394  -4.645 -19.955  0.00  0.00    +0.029 C 
BRANCH  16  17
ATOM     17  C   LIG    1       -7.525  -5.430 -18.970  0.00  0.00    -0.074 C 
BRANCH  17  18
ATOM     18  C   LIG    1       -8.396  -6.024 -17.894  0.00  0.00    +0.487 C 
ATOM     19  O   LIG    1       -9.302  -5.368 -17.411  0.00  0.00    -0.708 OA
ATOM     20  O   LIG    1       -8.193  -7.163 -17.505  0.00  0.00    -0.699 OA
ENDBRANCH  17  18
ENDBRANCH  16  17
ENDBRANCH  15  16
ENDBRANCH  14  15
ENDBRANCH   2  14
TORSDOF 8
ENDMDL
MODEL 2
REMARK VINA RESULT:      -7.6      1.270      2.751
REMARK  Name = CHEMBL353188
REMARK                            x       y       z     vdW  Elec       q    Type
REMARK                         _______ _______ _______ _____ _____    ______ ____
ROOT
ATOM      1  C   LIG    1       -5.194  -1.670 -19.822  0.00  0.00    +0.112 A 
ATOM      2  C   LIG    1       -6.321  -2.369 -19.432  0.00  0.00    -0.059 A 
ATOM      3  C   LIG    1       -7.227  -1.793 -18.560  0.00  0.00    +0.077 A 
ATOM      4  C   LIG    1       -7.006  -0.514 -18.077  0.00  0.00    +0.085 A 
ATOM      5  C   LIG    1       -5.871   0.189 -18.470  0.00  0.00    +0.138 A 
ATOM      6  C   LIG    1       -4.967  -0.394 -19.344  0.00  0.00    -0.063 A 
ENDROOT
BRANCH   6   7
ATOM      7  N   LIG    1       -3.759   0.350 -19.764  0.00  0.00    +0.038 N 
ATOM      8  O   LIG    1       -3.136   0.997 -18.954  0.00  0.00    -0.142 OA
ATOM      9  O   LIG    1       -3.396   0.313 -20.917  0.00  0.00    -0.164 OA
ENDBRANCH   6   7
BRANCH   4  10
ATOM     10  O   LIG    1       -7.896   0.055 -17.220  0.00  0.00    -0.475 OA
ATOM     11  H   LIG    1       -8.719   0.340 -17.640  0.00  0.00    +0.395 HD
ENDBRANCH   4  10
BRANCH   5  12
ATOM     12  O   LIG    1       -5.650   1.445 -17.998  0.00  0.00    -0.464 OA
ATOM     13  H   LIG    1       -5.782   2.141 -18.656  0.00  0.00    +0.399 HD
ENDBRANCH   5  12
BRANCH   2  14
ATOM     14  C   LIG    1       -6.563  -3.760 -19.956  0.00  0.00    +0.085 C 
BRANCH  14  15
ATOM     15  C   LIG    1       -8.025  -3.897 -20.387  0.00  0.00    +0.003 C 
BRANCH  15  16
ATOM     16  C   LIG    1       -8.555  -5.268 -19.965  0.00  0.00    +0.029 C 
BRANCH  16  17
ATOM     17  C   LIG    1       -7.654  -5.849 -18.873  0.00  0.00    -0.074 C 
BRANCH  17  18
ATOM     18  C   LIG    1       -8.480  -6.167 -17.655  0.00  0.00    +0.487 C 
ATOM     19  O   LIG    1       -8.295  -7.207 -17.046  0.00  0.00    -0.708 OA
ATOM     20  O   LIG    1       -9.336  -5.384 -17.277  0.00  0.00    -0.699 OA
ENDBRANCH  17  18
ENDBRANCH  16  17
ENDBRANCH  15  16
ENDBRANCH  14  15
ENDBRANCH   2  14
TORSDOF 8
ENDMDL
MODEL 3
REMARK VINA RESULT:      -7.3      2.040      3.489
REMARK  Name = CHEMBL353188
REMARK                            x       y       z     vdW  Elec       q    Type
REMARK                         _______ _______ _______ _____ _____    ______ ____
ROOT
ATOM      1  C   LIG    1       -4.529  -1.069 -20.641  0.00  0.00    +0.112 A 
ATOM      2  C   LIG    1       -5.582  -1.577 -19.903  0.00  0.00    -0.059 A 
ATOM      3  C   LIG    1       -6.128  -0.835 -18.871  0.00  0.00    +0.077 A 
ATOM      4  C   LIG    1       -5.620   0.419 -18.575  0.00  0.00    +0.085 A 
ATOM      5  C   LIG    1       -4.559   0.929 -19.319  0.00  0.00    +0.138 A 
ATOM      6  C   LIG    1       -4.017   0.182 -20.351  0.00  0.00    -0.063 A 
ENDROOT
BRANCH   6   7
ATOM      7  N   LIG    1       -2.889   0.721 -21.143  0.00  0.00    +0.038 N 
ATOM      8  O   LIG    1       -2.872   1.890 -21.450  0.00  0.00    -0.142 OA
ATOM      9  O   LIG    1       -1.987  -0.007 -21.484  0.00  0.00    -0.164 OA
ENDBRANCH   6   7
BRANCH   4  10
ATOM     10  O   LIG    1       -6.155   1.151 -17.562  0.00  0.00    -0.475 OA
ATOM     11  H   LIG    1       -5.759   2.026 -17.457  0.00  0.00    +0.395 HD
ENDBRANCH   4  10
BRANCH   5  12
ATOM     12  O   LIG    1       -4.058   2.161 -19.032  0.00  0.00    -0.464 OA
ATOM     13  H   LIG    1       -4.734   2.838 -18.894  0.00  0.00    +0.399 HD
ENDBRANCH   5  12
BRANCH   2  14
ATOM     14  C   LIG    1       -6.136  -2.941 -20.222  0.00  0.00    +0.085 C 
BRANCH  14  15
ATOM     15  C   LIG    1       -6.663  -3.592 -18.942  0.00  0.00    +0.003 C 
BRANCH  15  16
ATOM     16  C   LIG    1       -7.947  -4.361 -19.252  0.00  0.00    +0.029 C 
BRANCH  16  17
ATOM     17  C   LIG    1       -8.256  -4.257 -20.747  0.00  0.00    -0.074 C 
BRANCH  17  18
ATOM     18  C   LIG    1       -9.443  -5.124 -21.078  0.00  0.00    +0.487 C 
ATOM     19  O   LIG    1      -10.342  -5.262 -20.266  0.00  0.00    -0.708 OA
ATOM     20  O   LIG    1       -9.505  -5.687 -22.158  0.00  0.00    -0.699 OA
ENDBRANCH  17  18
ENDBRANCH  16  17
ENDBRANCH  15  16
ENDBRANCH  14  15
ENDBRANCH   2  14
TORSDOF 8
ENDMDL
MODEL 4
REMARK VINA RESULT:      -7.1      2.843      3.933
REMARK  Name = CHEMBL353188
REMARK                            x       y       z     vdW  Elec       q    Type
REMARK                         _______ _______ _______ _____ _____    ______ ____
ROOT
ATOM      1  C   LIG    1       -5.171  -1.778 -19.801  0.00  0.00    +0.112 A 
ATOM      2  C   LIG    1       -6.322  -2.431 -19.402  0.00  0.00    -0.059 A 
ATOM      3  C   LIG    1       -7.239  -1.790 -18.589  0.00  0.00    +0.077 A 
ATOM      4  C   LIG    1       -7.005  -0.489 -18.174  0.00  0.00    +0.085 A 
ATOM      5  C   LIG    1       -5.846   0.169 -18.576  0.00  0.00    +0.138 A 
ATOM      6  C   LIG    1       -4.932  -0.480 -19.390  0.00  0.00    -0.063 A 
ENDROOT
BRANCH   6   7
ATOM      7  N   LIG    1       -3.698   0.216 -19.820  0.00  0.00    +0.038 N 
ATOM      8  O   LIG    1       -3.279   0.063 -20.943  0.00  0.00    -0.142 OA
ATOM      9  O   LIG    1       -3.110   0.936 -19.047  0.00  0.00    -0.164 OA
ENDBRANCH   6   7
BRANCH   4  10
ATOM     10  O   LIG    1       -7.905   0.144 -17.376  0.00  0.00    -0.475 OA
ATOM     11  H   LIG    1       -8.827  -0.070 -17.575  0.00  0.00    +0.395 HD
ENDBRANCH   4  10
BRANCH   5  12
ATOM     12  O   LIG    1       -5.613   1.446 -18.171  0.00  0.00    -0.464 OA
ATOM     13  H   LIG    1       -6.067   2.115 -18.700  0.00  0.00    +0.399 HD
ENDBRANCH   5  12
BRANCH   2  14
ATOM     14  C   LIG    1       -6.578  -3.846 -19.852  0.00  0.00    +0.085 C 
BRANCH  14  15
ATOM     15  C   LIG    1       -8.065  -4.020 -20.170  0.00  0.00    +0.003 C 
BRANCH  15  16
ATOM     16  C   LIG    1       -8.305  -3.740 -21.654  0.00  0.00    +0.029 C 
BRANCH  16  17
ATOM     17  C   LIG    1       -9.482  -4.584 -22.149  0.00  0.00    -0.074 C 
BRANCH  17  18
ATOM     18  C   LIG    1       -9.278  -4.930 -23.601  0.00  0.00    +0.487 C 
ATOM     19  O   LIG    1       -9.350  -4.059 -24.451  0.00  0.00    -0.708 OA
ATOM     20  O   LIG    1       -9.041  -6.081 -23.927  0.00  0.00    -0.699 OA
ENDBRANCH  17  18
ENDBRANCH  16  17
ENDBRANCH  15  16
ENDBRANCH  14  15
ENDBRANCH   2  14
TORSDOF 8
ENDMDL
MODEL 5
REMARK VINA RESULT:      -6.9      2.638      6.388
REMARK  Name = CHEMBL353188
REMARK                            x       y       z     vdW  Elec       q    Type
REMARK                         _______ _______ _______ _____ _____    ______ ____
ROOT
ATOM      1  C   LIG    1       -7.534  -3.435 -21.142  0.00  0.00    +0.112 A 
ATOM      2  C   LIG    1       -6.488  -3.116 -20.296  0.00  0.00    -0.059 A 
ATOM      3  C   LIG    1       -6.328  -3.796 -19.102  0.00  0.00    +0.077 A 
ATOM      4  C   LIG    1       -7.217  -4.799 -18.753  0.00  0.00    +0.085 A 
ATOM      5  C   LIG    1       -8.270  -5.120 -19.605  0.00  0.00    +0.138 A 
ATOM      6  C   LIG    1       -8.424  -4.435 -20.799  0.00  0.00    -0.063 A 
ENDROOT
BRANCH   6   7
ATOM      7  N   LIG    1       -9.543  -4.772 -21.707  0.00  0.00    +0.038 N 
ATOM      8  O   LIG    1      -10.629  -5.048 -21.251  0.00  0.00    -0.142 OA
ATOM      9  O   LIG    1       -9.371  -4.774 -22.904  0.00  0.00    -0.164 OA
ENDBRANCH   6   7
BRANCH   4  10
ATOM     10  O   LIG    1       -7.061  -5.470 -17.580  0.00  0.00    -0.475 OA
ATOM     11  H   LIG    1       -7.125  -4.909 -16.795  0.00  0.00    +0.395 HD
ENDBRANCH   4  10
BRANCH   5  12
ATOM     12  O   LIG    1       -9.145  -6.104 -19.265  0.00  0.00    -0.464 OA
ATOM     13  H   LIG    1       -8.929  -6.968 -19.642  0.00  0.00    +0.399 HD
ENDBRANCH   5  12
BRANCH   2  14
ATOM     14  C   LIG    1       -5.521  -2.025 -20.674  0.00  0.00    +0.085 C 
BRANCH  14  15
ATOM     15  C   LIG    1       -4.829  -1.495 -19.416  0.00  0.00    +0.003 C 
BRANCH  15  16
ATOM     16  C   LIG    1       -5.413  -0.131 -19.049  0.00  0.00    +0.029 C 
BRANCH  16  17
ATOM     17  C   LIG    1       -6.656  -0.325 -18.178  0.00  0.00    -0.074 C 
BRANCH  17  18
ATOM     18  C   LIG    1       -6.661   0.697 -17.072  0.00  0.00    +0.487 C 
ATOM     19  O   LIG    1       -6.940   1.859 -17.316  0.00  0.00    -0.708 OA
ATOM     20  O   LIG    1       -6.386   0.363 -15.931  0.00  0.00    -0.699 OA
ENDBRANCH  17  18
ENDBRANCH  16  17
ENDBRANCH  15  16
ENDBRANCH  14  15
ENDBRANCH   2  14
TORSDOF 8
ENDMDL
MODEL 6
REMARK VINA RESULT:      -6.7      8.175     10.675
REMARK  Name = CHEMBL353188
REMARK                            x       y       z     vdW  Elec       q    Type
REMARK                         _______ _______ _______ _____ _____    ______ ____
ROOT
ATOM      1  C   LIG    1       -4.171 -10.557 -18.732  0.00  0.00    +0.112 A 
ATOM      2  C   LIG    1       -3.554 -11.721 -19.153  0.00  0.00    -0.059 A 
ATOM      3  C   LIG    1       -3.583 -12.849 -18.354  0.00  0.00    +0.077 A 
ATOM      4  C   LIG    1       -4.231 -12.816 -17.130  0.00  0.00    +0.085 A 
ATOM      5  C   LIG    1       -4.852 -11.644 -16.708  0.00  0.00    +0.138 A 
ATOM      6  C   LIG    1       -4.820 -10.517 -17.513  0.00  0.00    -0.063 A 
ENDROOT
BRANCH   6   7
ATOM      7  N   LIG    1       -5.479  -9.269 -17.067  0.00  0.00    +0.038 N 
ATOM      8  O   LIG    1       -4.957  -8.200 -17.284  0.00  0.00    -0.142 OA
ATOM      9  O   LIG    1       -6.537  -9.318 -16.484  0.00  0.00    -0.164 OA
ENDBRANCH   6   7
BRANCH   4  10
ATOM     10  O   LIG    1       -4.262 -13.924 -16.344  0.00  0.00    -0.475 OA
ATOM     11  H   LIG    1       -4.489 -14.736 -16.818  0.00  0.00    +0.395 HD
ENDBRANCH   4  10
BRANCH   5  12
ATOM     12  O   LIG    1       -5.491 -11.607 -15.507  0.00  0.00    -0.464 OA
ATOM     13  H   LIG    1       -6.387 -11.970 -15.527  0.00  0.00    +0.399 HD
ENDBRANCH   5  12
BRANCH   2  14
ATOM     14  C   LIG    1       -2.847 -11.759 -20.482  0.00  0.00    +0.085 C 
BRANCH  14  15
ATOM     15  C   LIG    1       -2.635 -10.332 -20.991  0.00  0.00    +0.003 C 
BRANCH  15  16
ATOM     16  C   LIG    1       -1.166  -9.944 -20.823  0.00  0.00    +0.029 C 
BRANCH  16  17
ATOM     17  C   LIG    1       -1.073  -8.576 -20.144  0.00  0.00    -0.074 C 
BRANCH  17  18
ATOM     18  C   LIG    1       -0.263  -7.641 -21.004  0.00  0.00    +0.487 C 
ATOM     19  O   LIG    1       -0.720  -7.230 -22.057  0.00  0.00    -0.708 OA
ATOM     20  O   LIG    1        0.851  -7.295 -20.647  0.00  0.00    -0.699 OA
ENDBRANCH  17  18
ENDBRANCH  16  17
ENDBRANCH  15  16
ENDBRANCH  14  15
ENDBRANCH   2  14
TORSDOF 8
ENDMDL
MODEL 7
REMARK VINA RESULT:      -6.7      2.552      6.494
REMARK  Name = CHEMBL353188
REMARK                            x       y       z     vdW  Elec       q    Type
REMARK                         _______ _______ _______ _____ _____    ______ ____
ROOT
ATOM      1  C   LIG    1       -5.075   0.031 -18.835  0.00  0.00    +0.112 A 
ATOM      2  C   LIG    1       -4.546  -0.843 -19.767  0.00  0.00    -0.059 A 
ATOM      3  C   LIG    1       -5.262  -1.961 -20.155  0.00  0.00    +0.077 A 
ATOM      4  C   LIG    1       -6.511  -2.208 -19.610  0.00  0.00    +0.085 A 
ATOM      5  C   LIG    1       -7.043  -1.328 -18.672  0.00  0.00    +0.138 A 
ATOM      6  C   LIG    1       -6.321  -0.210 -18.288  0.00  0.00    -0.063 A 
ENDROOT
BRANCH   6   7
ATOM      7  N   LIG    1       -6.884   0.728 -17.290  0.00  0.00    +0.038 N 
ATOM      8  O   LIG    1       -7.434   1.741 -17.656  0.00  0.00    -0.142 OA
ATOM      9  O   LIG    1       -6.792   0.482 -16.110  0.00  0.00    -0.164 OA
ENDBRANCH   6   7
BRANCH   4  10
ATOM     10  O   LIG    1       -7.217  -3.306 -19.990  0.00  0.00    -0.475 OA
ATOM     11  H   LIG    1       -7.801  -3.156 -20.746  0.00  0.00    +0.395 HD
ENDBRANCH   4  10
BRANCH   5  12
ATOM     12  O   LIG    1       -8.269  -1.566 -18.134  0.00  0.00    -0.464 OA
ATOM     13  H   LIG    1       -8.856  -0.798 -18.138  0.00  0.00    +0.399 HD
ENDBRANCH   5  12
BRANCH   2  14
ATOM     14  C   LIG    1       -3.188  -0.577 -20.361  0.00  0.00    +0.085 C 
BRANCH  14  15
ATOM     15  C   LIG    1       -2.979   0.932 -20.504  0.00  0.00    +0.003 C 
BRANCH  15  16
ATOM     16  C   LIG    1       -2.620   1.262 -21.953  0.00  0.00    +0.029 C 
BRANCH  16  17
ATOM     17  C   LIG    1       -1.615   0.234 -22.477  0.00  0.00    -0.074 C 
BRANCH  17  18
ATOM     18  C   LIG    1       -0.243   0.855 -22.535  0.00  0.00    +0.487 C 
ATOM     19  O   LIG    1       -0.122   2.068 -22.536  0.00  0.00    -0.708 OA
ATOM     20  O   LIG    1        0.747   0.144 -22.582  0.00  0.00    -0.699 OA
ENDBRANCH  17  18
ENDBRANCH  16  17
ENDBRANCH  15  16
ENDBRANCH  14  15
ENDBRANCH   2  14
TORSDOF 8
ENDMDL
MODEL 8
REMARK VINA RESULT:      -6.5      8.441     11.280
REMARK  Name = CHEMBL353188
REMARK                            x       y       z     vdW  Elec       q    Type
REMARK                         _______ _______ _______ _____ _____    ______ ____
ROOT
ATOM      1  C   LIG    1       -3.373 -11.597 -18.784  0.00  0.00    +0.112 A 
ATOM      2  C   LIG    1       -3.483 -10.254 -19.091  0.00  0.00    -0.059 A 
ATOM      3  C   LIG    1       -4.255  -9.422 -18.301  0.00  0.00    +0.077 A 
ATOM      4  C   LIG    1       -4.919  -9.934 -17.198  0.00  0.00    +0.085 A 
ATOM      5  C   LIG    1       -4.809 -11.286 -16.890  0.00  0.00    +0.138 A 
ATOM      6  C   LIG    1       -4.034 -12.114 -17.685  0.00  0.00    -0.063 A 
ENDROOT
BRANCH   6   7
ATOM      7  N   LIG    1       -3.914 -13.554 -17.360  0.00  0.00    +0.038 N 
ATOM      8  O   LIG    1       -3.872 -13.910 -16.206  0.00  0.00    -0.142 OA
ATOM      9  O   LIG    1       -3.857 -14.372 -18.248  0.00  0.00    -0.164 OA
ENDBRANCH   6   7
BRANCH   4  10
ATOM     10  O   LIG    1       -5.678  -9.117 -16.419  0.00  0.00    -0.475 OA
ATOM     11  H   LIG    1       -5.345  -9.014 -15.517  0.00  0.00    +0.395 HD
ENDBRANCH   4  10
BRANCH   5  12
ATOM     12  O   LIG    1       -5.459 -11.793 -15.808  0.00  0.00    -0.464 OA
ATOM     13  H   LIG    1       -5.022 -11.611 -14.965  0.00  0.00    +0.399 HD
ENDBRANCH   5  12
BRANCH   2  14
ATOM     14  C   LIG    1       -2.761  -9.695 -20.289  0.00  0.00    +0.085 C 
BRANCH  14  15
ATOM     15  C   LIG    1       -1.307  -9.398 -19.918  0.00  0.00    +0.003 C 
BRANCH  15  16
ATOM     16  C   LIG    1       -0.833  -8.154 -20.669  0.00  0.00    +0.029 C 
BRANCH  16  17
ATOM     17  C   LIG    1        0.696  -8.143 -20.726  0.00  0.00    -0.074 C 
BRANCH  17  18
ATOM     18  C   LIG    1        1.173  -6.805 -21.227  0.00  0.00    +0.487 C 
ATOM     19  O   LIG    1        0.654  -6.301 -22.209  0.00  0.00    -0.708 OA
ATOM     20  O   LIG    1        2.079  -6.225 -20.652  0.00  0.00    -0.699 OA
ENDBRANCH  17  18
ENDBRANCH  16  17
ENDBRANCH  15  16
ENDBRANCH  14  15
ENDBRANCH   2  14
TORSDOF 8
ENDMDL
MODEL 9
REMARK VINA RESULT:      -6.4      2.880      6.655
REMARK  Name = CHEMBL353188
REMARK                            x       y       z     vdW  Elec       q    Type
REMARK                         _______ _______ _______ _____ _____    ______ ____
ROOT
ATOM      1  C   LIG    1       -5.069  -1.142 -19.549  0.00  0.00    +0.112 A 
ATOM      2  C   LIG    1       -4.691   0.148 -19.225  0.00  0.00    -0.059 A 
ATOM      3  C   LIG    1       -5.549   0.963 -18.509  0.00  0.00    +0.077 A 
ATOM      4  C   LIG    1       -6.788   0.487 -18.114  0.00  0.00    +0.085 A 
ATOM      5  C   LIG    1       -7.168  -0.811 -18.440  0.00  0.00    +0.138 A 
ATOM      6  C   LIG    1       -6.304  -1.623 -19.158  0.00  0.00    -0.063 A 
ENDROOT
BRANCH   6   7
ATOM      7  N   LIG    1       -6.705  -3.005 -19.507  0.00  0.00    +0.038 N 
ATOM      8  O   LIG    1       -6.993  -3.789 -18.633  0.00  0.00    -0.142 OA
ATOM      9  O   LIG    1       -6.742  -3.349 -20.666  0.00  0.00    -0.164 OA
ENDBRANCH   6   7
BRANCH   4  10
ATOM     10  O   LIG    1       -7.633   1.287 -17.409  0.00  0.00    -0.475 OA
ATOM     11  H   LIG    1       -7.729   1.034 -16.480  0.00  0.00    +0.395 HD
ENDBRANCH   4  10
BRANCH   5  12
ATOM     12  O   LIG    1       -8.384  -1.282 -18.055  0.00  0.00    -0.464 OA
ATOM     13  H   LIG    1       -8.461  -2.246 -18.086  0.00  0.00    +0.399 HD
ENDBRANCH   5  12
BRANCH   2  14
ATOM     14  C   LIG    1       -3.344   0.667 -19.653  0.00  0.00    +0.085 C 
BRANCH  14  15
ATOM     15  C   LIG    1       -2.953   0.033 -20.990  0.00  0.00    +0.003 C 
BRANCH  15  16
ATOM     16  C   LIG    1       -2.645   1.134 -22.006  0.00  0.00    +0.029 C 
BRANCH  16  17
ATOM     17  C   LIG    1       -1.138   1.181 -22.266  0.00  0.00    -0.074 C 
BRANCH  17  18
ATOM     18  C   LIG    1       -0.712  -0.072 -22.986  0.00  0.00    +0.487 C 
ATOM     19  O   LIG    1        0.120  -0.810 -22.486  0.00  0.00    -0.708 OA
ATOM     20  O   LIG    1       -1.199  -0.347 -24.070  0.00  0.00    -0.699 OA
ENDBRANCH  17  18
ENDBRANCH  16  17
ENDBRANCH  15  16
ENDBRANCH  14  15
ENDBRANCH   2  14
TORSDOF 8
ENDMDL
