MODEL 1
REMARK VINA RESULT:      -7.8      0.000      0.000
REMARK  Name = CHEMBL160038
REMARK                            x       y       z     vdW  Elec       q    Type
REMARK                         _______ _______ _______ _____ _____    ______ ____
ROOT
ATOM      1  C   LIG    1       -3.680 -11.592 -19.206  0.00  0.00    -0.159 A 
ATOM      2  C   LIG    1       -4.311 -10.447 -18.702  0.00  0.00    +0.177 A 
ATOM      3  C   LIG    1       -4.900 -10.478 -17.458  0.00  0.00    -0.077 A 
ATOM      4  C   LIG    1       -4.869 -11.641 -16.700  0.00  0.00    +0.183 A 
ATOM      5  C   LIG    1       -4.242 -12.784 -17.194  0.00  0.00    +0.076 A 
ATOM      6  C   LIG    1       -3.653 -12.765 -18.442  0.00  0.00    +0.126 A 
ENDROOT
BRANCH   3   7
ATOM      7  N   LIG    1       -5.567  -9.268 -16.928  0.00  0.00    +0.034 N 
ATOM      8  O   LIG    1       -6.601  -9.368 -16.311  0.00  0.00    -0.129 OA
ATOM      9  O   LIG    1       -5.077  -8.177 -17.113  0.00  0.00    -0.156 OA
ENDBRANCH   3   7
BRANCH   1  10
ATOM     10  C   LIG    1       -3.050 -11.563 -20.533  0.00  0.00    +0.399 C 
ATOM     11  O   LIG    1       -2.229 -12.403 -20.833  0.00  0.00    -0.420 OA
BRANCH  10  12
ATOM     12  C   LIG    1       -3.424 -10.488 -21.521  0.00  0.00    +0.102 C 
BRANCH  12  16
ATOM     13  C   LIG    1       -0.360  -7.513 -21.615  0.00  0.00    +0.007 A 
ATOM     14  C   LIG    1       -1.129  -7.749 -22.740  0.00  0.00    +0.007 A 
ATOM     15  C   LIG    1       -2.120  -8.712 -22.709  0.00  0.00    +0.014 A 
ATOM     16  C   LIG    1       -2.343  -9.439 -21.555  0.00  0.00    -0.083 A 
ATOM     17  C   LIG    1       -1.574  -9.203 -20.430  0.00  0.00    +0.013 A 
ATOM     18  C   LIG    1       -0.583  -8.240 -20.460  0.00  0.00    +0.006 A 
ENDBRANCH  12  16
ENDBRANCH  10  12
ENDBRANCH   1  10
BRANCH   4  19
ATOM     19  O   LIG    1       -5.452 -11.665 -15.474  0.00  0.00    -0.459 OA
ATOM     20  H   LIG    1       -5.255 -12.459 -14.960  0.00  0.00    +0.409 HD
ENDBRANCH   4  19
BRANCH   5  21
ATOM     21  O   LIG    1       -4.214 -13.921 -16.446  0.00  0.00    -0.469 OA
ATOM     22  H   LIG    1       -3.339 -14.143 -16.101  0.00  0.00    +0.399 HD
ENDBRANCH   5  21
TORSDOF 6
ENDMDL
MODEL 2
REMARK VINA RESULT:      -7.1      2.166      3.324
REMARK  Name = CHEMBL160038
REMARK                            x       y       z     vdW  Elec       q    Type
REMARK                         _______ _______ _______ _____ _____    ______ ____
ROOT
ATOM      1  C   LIG    1       -3.516 -11.616 -19.177  0.00  0.00    -0.159 A 
ATOM      2  C   LIG    1       -4.158 -10.454 -18.731  0.00  0.00    +0.177 A 
ATOM      3  C   LIG    1       -4.826 -10.456 -17.527  0.00  0.00    -0.077 A 
ATOM      4  C   LIG    1       -4.864 -11.609 -16.751  0.00  0.00    +0.183 A 
ATOM      5  C   LIG    1       -4.226 -12.769 -17.188  0.00  0.00    +0.076 A 
ATOM      6  C   LIG    1       -3.559 -12.778 -18.396  0.00  0.00    +0.126 A 
ENDROOT
BRANCH   3   7
ATOM      7  N   LIG    1       -5.505  -9.228 -17.057  0.00  0.00    +0.034 N 
ATOM      8  O   LIG    1       -6.574  -9.303 -16.499  0.00  0.00    -0.129 OA
ATOM      9  O   LIG    1       -4.989  -8.147 -17.232  0.00  0.00    -0.156 OA
ENDBRANCH   3   7
BRANCH   1  10
ATOM     10  C   LIG    1       -2.803 -11.617 -20.461  0.00  0.00    +0.399 C 
ATOM     11  O   LIG    1       -1.924 -10.807 -20.667  0.00  0.00    -0.420 OA
BRANCH  10  12
ATOM     12  C   LIG    1       -3.164 -12.624 -21.522  0.00  0.00    +0.102 C 
BRANCH  12  16
ATOM     13  C   LIG    1       -6.875 -11.523 -23.327  0.00  0.00    +0.007 A 
ATOM     14  C   LIG    1       -5.797 -10.659 -23.383  0.00  0.00    +0.007 A 
ATOM     15  C   LIG    1       -4.596 -11.016 -22.798  0.00  0.00    +0.014 A 
ATOM     16  C   LIG    1       -4.473 -12.235 -22.158  0.00  0.00    -0.083 A 
ATOM     17  C   LIG    1       -5.552 -13.098 -22.103  0.00  0.00    +0.013 A 
ATOM     18  C   LIG    1       -6.752 -12.742 -22.689  0.00  0.00    +0.006 A 
ENDBRANCH  12  16
ENDBRANCH  10  12
ENDBRANCH   1  10
BRANCH   4  19
ATOM     19  O   LIG    1       -5.524 -11.604 -15.566  0.00  0.00    -0.459 OA
ATOM     20  H   LIG    1       -6.437 -11.292 -15.624  0.00  0.00    +0.409 HD
ENDBRANCH   4  19
BRANCH   5  21
ATOM     21  O   LIG    1       -4.266 -13.894 -16.425  0.00  0.00    -0.469 OA
ATOM     22  H   LIG    1       -4.922 -14.543 -16.714  0.00  0.00    +0.399 HD
ENDBRANCH   5  21
TORSDOF 6
ENDMDL
MODEL 3
REMARK VINA RESULT:      -7.0      1.697      3.260
REMARK  Name = CHEMBL160038
REMARK                            x       y       z     vdW  Elec       q    Type
REMARK                         _______ _______ _______ _____ _____    ______ ____
ROOT
ATOM      1  C   LIG    1       -3.428 -10.153 -18.928  0.00  0.00    -0.159 A 
ATOM      2  C   LIG    1       -3.308 -11.522 -18.660  0.00  0.00    +0.177 A 
ATOM      3  C   LIG    1       -4.021 -12.086 -17.626  0.00  0.00    -0.077 A 
ATOM      4  C   LIG    1       -4.860 -11.299 -16.847  0.00  0.00    +0.183 A 
ATOM      5  C   LIG    1       -4.985  -9.935 -17.108  0.00  0.00    +0.076 A 
ATOM      6  C   LIG    1       -4.271  -9.361 -18.139  0.00  0.00    +0.126 A 
ENDROOT
BRANCH   3   7
ATOM      7  N   LIG    1       -3.893 -13.533 -17.344  0.00  0.00    +0.034 N 
ATOM      8  O   LIG    1       -3.871 -13.927 -16.202  0.00  0.00    -0.129 OA
ATOM      9  O   LIG    1       -3.809 -14.322 -18.257  0.00  0.00    -0.156 OA
ENDBRANCH   3   7
BRANCH   1  10
ATOM     10  C   LIG    1       -2.669  -9.548 -20.031  0.00  0.00    +0.399 C 
ATOM     11  O   LIG    1       -2.830  -9.944 -21.166  0.00  0.00    -0.420 OA
BRANCH  10  12
ATOM     12  C   LIG    1       -1.689  -8.437 -19.752  0.00  0.00    +0.102 C 
BRANCH  12  16
ATOM     13  C   LIG    1        1.641  -8.781 -22.406  0.00  0.00    +0.007 A 
ATOM     14  C   LIG    1        1.463  -9.708 -21.395  0.00  0.00    +0.007 A 
ATOM     15  C   LIG    1        0.386  -9.596 -20.537  0.00  0.00    +0.014 A 
ATOM     16  C   LIG    1       -0.514  -8.558 -20.687  0.00  0.00    -0.083 A 
ATOM     17  C   LIG    1       -0.337  -7.631 -21.698  0.00  0.00    +0.013 A 
ATOM     18  C   LIG    1        0.740  -7.743 -22.557  0.00  0.00    +0.006 A 
ENDBRANCH  12  16
ENDBRANCH  10  12
ENDBRANCH   1  10
BRANCH   4  19
ATOM     19  O   LIG    1       -5.560 -11.861 -15.828  0.00  0.00    -0.459 OA
ATOM     20  H   LIG    1       -5.261 -12.748 -15.587  0.00  0.00    +0.409 HD
ENDBRANCH   4  19
BRANCH   5  21
ATOM     21  O   LIG    1       -5.809  -9.170 -16.342  0.00  0.00    -0.469 OA
ATOM     22  H   LIG    1       -5.442  -8.942 -15.477  0.00  0.00    +0.399 HD
ENDBRANCH   5  21
TORSDOF 6
ENDMDL
MODEL 4
REMARK VINA RESULT:      -7.0      2.862      5.031
REMARK  Name = CHEMBL160038
REMARK                            x       y       z     vdW  Elec       q    Type
REMARK                         _______ _______ _______ _____ _____    ______ ____
ROOT
ATOM      1  C   LIG    1       -3.678 -12.655 -19.287  0.00  0.00    -0.159 A 
ATOM      2  C   LIG    1       -4.136 -11.363 -18.996  0.00  0.00    +0.177 A 
ATOM      3  C   LIG    1       -4.605 -11.067 -17.736  0.00  0.00    -0.077 A 
ATOM      4  C   LIG    1       -4.624 -12.046 -16.751  0.00  0.00    +0.183 A 
ATOM      5  C   LIG    1       -4.169 -13.334 -17.032  0.00  0.00    +0.076 A 
ATOM      6  C   LIG    1       -3.703 -13.641 -18.294  0.00  0.00    +0.126 A 
ENDROOT
BRANCH   3   7
ATOM      7  N   LIG    1       -5.088  -9.702 -17.431  0.00  0.00    +0.034 N 
ATOM      8  O   LIG    1       -4.498  -8.740 -17.864  0.00  0.00    -0.129 OA
ATOM      9  O   LIG    1       -6.074  -9.548 -16.748  0.00  0.00    -0.156 OA
ENDBRANCH   3   7
BRANCH   1  10
ATOM     10  C   LIG    1       -3.177 -12.974 -20.631  0.00  0.00    +0.399 C 
ATOM     11  O   LIG    1       -3.504 -12.290 -21.578  0.00  0.00    -0.420 OA
BRANCH  10  12
ATOM     12  C   LIG    1       -2.259 -14.152 -20.832  0.00  0.00    +0.102 C 
BRANCH  12  16
ATOM     13  C   LIG    1       -4.589 -17.665 -21.524  0.00  0.00    +0.007 A 
ATOM     14  C   LIG    1       -3.741 -17.601 -20.433  0.00  0.00    +0.007 A 
ATOM     15  C   LIG    1       -2.987 -16.465 -20.210  0.00  0.00    +0.014 A 
ATOM     16  C   LIG    1       -3.080 -15.392 -21.077  0.00  0.00    -0.083 A 
ATOM     17  C   LIG    1       -3.928 -15.456 -22.167  0.00  0.00    +0.013 A 
ATOM     18  C   LIG    1       -4.683 -16.592 -22.390  0.00  0.00    +0.006 A 
ENDBRANCH  12  16
ENDBRANCH  10  12
ENDBRANCH   1  10
BRANCH   4  19
ATOM     19  O   LIG    1       -5.087 -11.748 -15.510  0.00  0.00    -0.459 OA
ATOM     20  H   LIG    1       -4.426 -11.351 -14.928  0.00  0.00    +0.409 HD
ENDBRANCH   4  19
BRANCH   5  21
ATOM     21  O   LIG    1       -4.190 -14.288 -16.063  0.00  0.00    -0.469 OA
ATOM     22  H   LIG    1       -5.078 -14.526 -15.764  0.00  0.00    +0.399 HD
ENDBRANCH   5  21
TORSDOF 6
ENDMDL
MODEL 5
REMARK VINA RESULT:      -6.6      1.956      3.664
REMARK  Name = CHEMBL160038
REMARK                            x       y       z     vdW  Elec       q    Type
REMARK                         _______ _______ _______ _____ _____    ______ ____
ROOT
ATOM      1  C   LIG    1       -3.319 -10.292 -19.011  0.00  0.00    -0.159 A 
ATOM      2  C   LIG    1       -3.254 -11.652 -18.685  0.00  0.00    +0.177 A 
ATOM      3  C   LIG    1       -3.996 -12.144 -17.635  0.00  0.00    -0.077 A 
ATOM      4  C   LIG    1       -4.811 -11.294 -16.897  0.00  0.00    +0.183 A 
ATOM      5  C   LIG    1       -4.881  -9.939 -17.216  0.00  0.00    +0.076 A 
ATOM      6  C   LIG    1       -4.137  -9.436 -18.264  0.00  0.00    +0.126 A 
ENDROOT
BRANCH   3   7
ATOM      7  N   LIG    1       -3.927 -13.582 -17.292  0.00  0.00    +0.034 N 
ATOM      8  O   LIG    1       -3.979 -13.931 -16.136  0.00  0.00    -0.129 OA
ATOM      9  O   LIG    1       -3.817 -14.408 -18.168  0.00  0.00    -0.156 OA
ENDBRANCH   3   7
BRANCH   1  10
ATOM     10  C   LIG    1       -2.528  -9.763 -20.131  0.00  0.00    +0.399 C 
ATOM     11  O   LIG    1       -2.034  -8.658 -20.056  0.00  0.00    -0.420 OA
BRANCH  10  12
ATOM     12  C   LIG    1       -2.332 -10.594 -21.372  0.00  0.00    +0.102 C 
BRANCH  12  16
ATOM     13  C   LIG    1       -5.005  -9.245 -24.419  0.00  0.00    +0.007 A 
ATOM     14  C   LIG    1       -5.418 -10.205 -23.513  0.00  0.00    +0.007 A 
ATOM     15  C   LIG    1       -4.552 -10.642 -22.527  0.00  0.00    +0.014 A 
ATOM     16  C   LIG    1       -3.275 -10.120 -22.448  0.00  0.00    -0.083 A 
ATOM     17  C   LIG    1       -2.862  -9.160 -23.354  0.00  0.00    +0.013 A 
ATOM     18  C   LIG    1       -3.728  -8.723 -24.339  0.00  0.00    +0.006 A 
ENDBRANCH  12  16
ENDBRANCH  10  12
ENDBRANCH   1  10
BRANCH   4  19
ATOM     19  O   LIG    1       -5.540 -11.785 -15.863  0.00  0.00    -0.459 OA
ATOM     20  H   LIG    1       -5.660 -11.161 -15.135  0.00  0.00    +0.409 HD
ENDBRANCH   4  19
BRANCH   5  21
ATOM     21  O   LIG    1       -5.681  -9.111 -16.491  0.00  0.00    -0.469 OA
ATOM     22  H   LIG    1       -5.631  -8.183 -16.756  0.00  0.00    +0.399 HD
ENDBRANCH   5  21
TORSDOF 6
ENDMDL
MODEL 6
REMARK VINA RESULT:      -6.5      4.119      6.488
REMARK  Name = CHEMBL160038
REMARK                            x       y       z     vdW  Elec       q    Type
REMARK                         _______ _______ _______ _____ _____    ______ ____
ROOT
ATOM      1  C   LIG    1       -3.064 -14.445 -19.476  0.00  0.00    -0.159 A 
ATOM      2  C   LIG    1       -3.164 -13.149 -19.996  0.00  0.00    +0.177 A 
ATOM      3  C   LIG    1       -3.624 -12.122 -19.202  0.00  0.00    -0.077 A 
ATOM      4  C   LIG    1       -3.988 -12.369 -17.884  0.00  0.00    +0.183 A 
ATOM      5  C   LIG    1       -3.891 -13.656 -17.359  0.00  0.00    +0.076 A 
ATOM      6  C   LIG    1       -3.437 -14.693 -18.149  0.00  0.00    +0.126 A 
ENDROOT
BRANCH   3   7
ATOM      7  N   LIG    1       -3.729 -10.753 -19.754  0.00  0.00    +0.034 N 
ATOM      8  O   LIG    1       -3.425  -9.802 -19.073  0.00  0.00    -0.129 OA
ATOM      9  O   LIG    1       -4.119 -10.586 -20.887  0.00  0.00    -0.156 OA
ENDBRANCH   3   7
BRANCH   1  10
ATOM     10  C   LIG    1       -2.574 -15.543 -20.320  0.00  0.00    +0.399 C 
ATOM     11  O   LIG    1       -2.023 -15.299 -21.373  0.00  0.00    -0.420 OA
BRANCH  10  12
ATOM     12  C   LIG    1       -2.758 -16.972 -19.879  0.00  0.00    +0.102 C 
BRANCH  12  16
ATOM     13  C   LIG    1       -5.861 -18.784 -22.189  0.00  0.00    +0.007 A 
ATOM     14  C   LIG    1       -5.404 -19.402 -21.039  0.00  0.00    +0.007 A 
ATOM     15  C   LIG    1       -4.400 -18.816 -20.292  0.00  0.00    +0.014 A 
ATOM     16  C   LIG    1       -3.852 -17.613 -20.694  0.00  0.00    -0.083 A 
ATOM     17  C   LIG    1       -4.308 -16.995 -21.844  0.00  0.00    +0.013 A 
ATOM     18  C   LIG    1       -5.313 -17.580 -22.590  0.00  0.00    +0.006 A 
ENDBRANCH  12  16
ENDBRANCH  10  12
ENDBRANCH   1  10
BRANCH   4  19
ATOM     19  O   LIG    1       -4.441 -11.353 -17.107  0.00  0.00    -0.459 OA
ATOM     20  H   LIG    1       -5.011 -11.637 -16.380  0.00  0.00    +0.409 HD
ENDBRANCH   4  19
BRANCH   5  21
ATOM     21  O   LIG    1       -4.250 -13.892 -16.068  0.00  0.00    -0.469 OA
ATOM     22  H   LIG    1       -3.527 -14.212 -15.511  0.00  0.00    +0.399 HD
ENDBRANCH   5  21
TORSDOF 6
ENDMDL
MODEL 7
REMARK VINA RESULT:      -6.5      1.763      3.085
REMARK  Name = CHEMBL160038
REMARK                            x       y       z     vdW  Elec       q    Type
REMARK                         _______ _______ _______ _____ _____    ______ ____
ROOT
ATOM      1  C   LIG    1       -3.792 -11.248 -19.978  0.00  0.00    -0.159 A 
ATOM      2  C   LIG    1       -3.580 -12.578 -19.591  0.00  0.00    +0.177 A 
ATOM      3  C   LIG    1       -3.817 -12.963 -18.291  0.00  0.00    -0.077 A 
ATOM      4  C   LIG    1       -4.269 -12.035 -17.360  0.00  0.00    +0.183 A 
ATOM      5  C   LIG    1       -4.484 -10.710 -17.737  0.00  0.00    +0.076 A 
ATOM      6  C   LIG    1       -4.243 -10.314 -19.037  0.00  0.00    +0.126 A 
ENDROOT
BRANCH   3   7
ATOM      7  N   LIG    1       -3.592 -14.367 -17.884  0.00  0.00    +0.034 N 
ATOM      8  O   LIG    1       -2.773 -15.041 -18.464  0.00  0.00    -0.129 OA
ATOM      9  O   LIG    1       -4.228 -14.843 -16.972  0.00  0.00    -0.156 OA
ENDBRANCH   3   7
BRANCH   1  10
ATOM     10  C   LIG    1       -3.540 -10.834 -21.364  0.00  0.00    +0.399 C 
ATOM     11  O   LIG    1       -4.449 -10.406 -22.044  0.00  0.00    -0.420 OA
BRANCH  10  12
ATOM     12  C   LIG    1       -2.153 -10.943 -21.942  0.00  0.00    +0.102 C 
BRANCH  12  16
ATOM     13  C   LIG    1       -0.169  -7.177 -21.587  0.00  0.00    +0.007 A 
ATOM     14  C   LIG    1       -0.940  -7.449 -22.702  0.00  0.00    +0.007 A 
ATOM     15  C   LIG    1       -1.582  -8.668 -22.817  0.00  0.00    +0.014 A 
ATOM     16  C   LIG    1       -1.452  -9.614 -21.818  0.00  0.00    -0.083 A 
ATOM     17  C   LIG    1       -0.680  -9.342 -20.703  0.00  0.00    +0.013 A 
ATOM     18  C   LIG    1       -0.040  -8.123 -20.587  0.00  0.00    +0.006 A 
ENDBRANCH  12  16
ENDBRANCH  10  12
ENDBRANCH   1  10
BRANCH   4  19
ATOM     19  O   LIG    1       -4.501 -12.421 -16.079  0.00  0.00    -0.459 OA
ATOM     20  H   LIG    1       -4.467 -13.377 -15.944  0.00  0.00    +0.409 HD
ENDBRANCH   4  19
BRANCH   5  21
ATOM     21  O   LIG    1       -4.926  -9.807 -16.821  0.00  0.00    -0.469 OA
ATOM     22  H   LIG    1       -5.597  -9.199 -17.160  0.00  0.00    +0.399 HD
ENDBRANCH   5  21
TORSDOF 6
ENDMDL
MODEL 8
REMARK VINA RESULT:      -6.3      7.879     10.357
REMARK  Name = CHEMBL160038
REMARK                            x       y       z     vdW  Elec       q    Type
REMARK                         _______ _______ _______ _____ _____    ______ ____
ROOT
ATOM      1  C   LIG    1        5.756  -7.070 -19.814  0.00  0.00    -0.159 A 
ATOM      2  C   LIG    1        4.544  -6.695 -20.407  0.00  0.00    +0.177 A 
ATOM      3  C   LIG    1        3.498  -7.589 -20.458  0.00  0.00    -0.077 A 
ATOM      4  C   LIG    1        3.641  -8.862 -19.921  0.00  0.00    +0.183 A 
ATOM      5  C   LIG    1        4.844  -9.242 -19.328  0.00  0.00    +0.076 A 
ATOM      6  C   LIG    1        5.900  -8.355 -19.277  0.00  0.00    +0.126 A 
ENDROOT
BRANCH   3   7
ATOM      7  N   LIG    1        2.218  -7.191 -21.086  0.00  0.00    +0.034 N 
ATOM      8  O   LIG    1        1.736  -7.872 -21.961  0.00  0.00    -0.129 OA
ATOM      9  O   LIG    1        1.654  -6.184 -20.724  0.00  0.00    -0.156 OA
ENDBRANCH   3   7
BRANCH   1  10
ATOM     10  C   LIG    1        6.875  -6.119 -19.758  0.00  0.00    +0.399 C 
ATOM     11  O   LIG    1        6.998  -5.277 -20.622  0.00  0.00    -0.420 OA
BRANCH  10  12
ATOM     12  C   LIG    1        7.868  -6.190 -18.627  0.00  0.00    +0.102 C 
BRANCH  12  16
ATOM     13  C   LIG    1        6.492  -3.793 -15.370  0.00  0.00    +0.007 A 
ATOM     14  C   LIG    1        6.573  -5.167 -15.232  0.00  0.00    +0.007 A 
ATOM     15  C   LIG    1        7.018  -5.942 -16.286  0.00  0.00    +0.014 A 
ATOM     16  C   LIG    1        7.382  -5.345 -17.478  0.00  0.00    -0.083 A 
ATOM     17  C   LIG    1        7.300  -3.971 -17.617  0.00  0.00    +0.013 A 
ATOM     18  C   LIG    1        6.856  -3.196 -16.562  0.00  0.00    +0.006 A 
ENDBRANCH  12  16
ENDBRANCH  10  12
ENDBRANCH   1  10
BRANCH   4  19
ATOM     19  O   LIG    1        2.606  -9.739 -19.975  0.00  0.00    -0.459 OA
ATOM     20  H   LIG    1        1.913  -9.492 -20.602  0.00  0.00    +0.409 HD
ENDBRANCH   4  19
BRANCH   5  21
ATOM     21  O   LIG    1        4.978 -10.491 -18.804  0.00  0.00    -0.469 OA
ATOM     22  H   LIG    1        4.556 -10.602 -17.942  0.00  0.00    +0.399 HD
ENDBRANCH   5  21
TORSDOF 6
ENDMDL
MODEL 9
REMARK VINA RESULT:      -6.0      1.831      3.264
REMARK  Name = CHEMBL160038
REMARK                            x       y       z     vdW  Elec       q    Type
REMARK                         _______ _______ _______ _____ _____    ______ ____
ROOT
ATOM      1  C   LIG    1       -2.049  -9.934 -20.176  0.00  0.00    -0.159 A 
ATOM      2  C   LIG    1       -2.846  -9.793 -19.034  0.00  0.00    +0.177 A 
ATOM      3  C   LIG    1       -3.705 -10.804 -18.664  0.00  0.00    -0.077 A 
ATOM      4  C   LIG    1       -3.783 -11.965 -19.422  0.00  0.00    +0.183 A 
ATOM      5  C   LIG    1       -2.992 -12.114 -20.561  0.00  0.00    +0.076 A 
ATOM      6  C   LIG    1       -2.132 -11.104 -20.942  0.00  0.00    +0.126 A 
ENDROOT
BRANCH   3   7
ATOM      7  N   LIG    1       -4.547 -10.652 -17.457  0.00  0.00    +0.034 N 
ATOM      8  O   LIG    1       -5.056  -9.585 -17.204  0.00  0.00    -0.129 OA
ATOM      9  O   LIG    1       -4.725 -11.596 -16.721  0.00  0.00    -0.156 OA
ENDBRANCH   3   7
BRANCH   1  10
ATOM     10  C   LIG    1       -1.132  -8.858 -20.573  0.00  0.00    +0.399 C 
ATOM     11  O   LIG    1       -0.994  -7.886 -19.861  0.00  0.00    -0.420 OA
BRANCH  10  12
ATOM     12  C   LIG    1       -0.363  -8.961 -21.865  0.00  0.00    +0.102 C 
BRANCH  12  16
ATOM     13  C   LIG    1       -2.162  -6.432 -24.800  0.00  0.00    +0.007 A 
ATOM     14  C   LIG    1       -0.961  -6.070 -24.218  0.00  0.00    +0.007 A 
ATOM     15  C   LIG    1       -0.379  -6.888 -23.268  0.00  0.00    +0.014 A 
ATOM     16  C   LIG    1       -0.998  -8.068 -22.900  0.00  0.00    -0.083 A 
ATOM     17  C   LIG    1       -2.199  -8.431 -23.482  0.00  0.00    +0.013 A 
ATOM     18  C   LIG    1       -2.780  -7.613 -24.432  0.00  0.00    +0.006 A 
ENDBRANCH  12  16
ENDBRANCH  10  12
ENDBRANCH   1  10
BRANCH   4  19
ATOM     19  O   LIG    1       -4.632 -12.958 -19.053  0.00  0.00    -0.459 OA
ATOM     20  H   LIG    1       -4.662 -13.700 -19.672  0.00  0.00    +0.409 HD
ENDBRANCH   4  19
BRANCH   5  21
ATOM     21  O   LIG    1       -3.072 -13.254 -21.299  0.00  0.00    -0.469 OA
ATOM     22  H   LIG    1       -2.539 -13.983 -20.956  0.00  0.00    +0.399 HD
ENDBRANCH   5  21
TORSDOF 6
ENDMDL
