MODEL 1
REMARK VINA RESULT:      -7.7      0.000      0.000
REMARK  Name = CHEMBL167054
REMARK                            x       y       z     vdW  Elec       q    Type
REMARK                         _______ _______ _______ _____ _____    ______ ____
ROOT
ATOM      1  C   LIG    1       -6.855  -2.173 -19.621  0.00  0.00    -0.063 A 
ATOM      2  C   LIG    1       -7.174  -1.278 -18.592  0.00  0.00    +0.136 A 
ATOM      3  C   LIG    1       -6.274  -0.302 -18.226  0.00  0.00    -0.066 A 
ATOM      4  C   LIG    1       -5.050  -0.202 -18.875  0.00  0.00    +0.161 A 
ATOM      5  C   LIG    1       -4.725  -1.090 -19.901  0.00  0.00    +0.084 A 
ATOM      6  C   LIG    1       -5.617  -2.076 -20.271  0.00  0.00    +0.096 A 
ENDROOT
BRANCH   1   9
ATOM      7  C   LIG    1       -6.791  -4.701 -18.311  0.00  0.00    +0.104 C 
ATOM      8  C   LIG    1       -7.844  -4.393 -19.343  0.00  0.00    -0.188 C 
ATOM      9  C   LIG    1       -7.812  -3.214 -20.013  0.00  0.00    +0.124 C 
BRANCH   8  10
ATOM     10  C   LIG    1       -8.861  -5.328 -19.613  0.00  0.00    +0.387 C 
ATOM     11  C   LIG    1       -9.587  -5.291 -20.933  0.00  0.00    +0.068 C 
ATOM     12  O   LIG    1       -9.153  -6.165 -18.783  0.00  0.00    -0.460 OA
ENDBRANCH   8  10
ENDBRANCH   1   9
BRANCH   3  13
ATOM     13  N   LIG    1       -6.613   0.644 -17.140  0.00  0.00    +0.035 N 
ATOM     14  O   LIG    1       -6.501   0.303 -15.985  0.00  0.00    -0.130 OA
ATOM     15  O   LIG    1       -7.002   1.757 -17.406  0.00  0.00    -0.160 OA
ENDBRANCH   3  13
BRANCH   4  16
ATOM     16  O   LIG    1       -4.167   0.762 -18.510  0.00  0.00    -0.460 OA
ATOM     17  H   LIG    1       -3.744   0.606 -17.654  0.00  0.00    +0.406 HD
ENDBRANCH   4  16
BRANCH   5  18
ATOM     18  O   LIG    1       -3.525  -0.988 -20.533  0.00  0.00    -0.471 OA
ATOM     19  H   LIG    1       -3.108  -0.119 -20.447  0.00  0.00    +0.398 HD
ENDBRANCH   5  18
TORSDOF 5
ENDMDL
MODEL 2
REMARK VINA RESULT:      -6.3      8.953     11.023
REMARK  Name = CHEMBL167054
REMARK                            x       y       z     vdW  Elec       q    Type
REMARK                         _______ _______ _______ _____ _____    ______ ____
ROOT
ATOM      1  C   LIG    1       -3.779 -10.669 -19.469  0.00  0.00    -0.063 A 
ATOM      2  C   LIG    1       -3.558 -12.007 -19.117  0.00  0.00    +0.136 A 
ATOM      3  C   LIG    1       -3.949 -12.465 -17.878  0.00  0.00    -0.066 A 
ATOM      4  C   LIG    1       -4.561 -11.604 -16.977  0.00  0.00    +0.161 A 
ATOM      5  C   LIG    1       -4.785 -10.271 -17.320  0.00  0.00    +0.084 A 
ATOM      6  C   LIG    1       -4.391  -9.800 -18.556  0.00  0.00    +0.096 A 
ENDROOT
BRANCH   1   9
ATOM      7  C   LIG    1       -1.246  -9.400 -19.758  0.00  0.00    +0.104 C 
ATOM      8  C   LIG    1       -2.129  -9.644 -20.955  0.00  0.00    -0.188 C 
ATOM      9  C   LIG    1       -3.364 -10.177 -20.788  0.00  0.00    +0.124 C 
BRANCH   8  10
ATOM     10  C   LIG    1       -1.672  -9.317 -22.246  0.00  0.00    +0.387 C 
ATOM     11  C   LIG    1       -2.609  -8.676 -23.236  0.00  0.00    +0.068 C 
ATOM     12  O   LIG    1       -0.523  -9.551 -22.561  0.00  0.00    -0.460 OA
ENDBRANCH   8  10
ENDBRANCH   1   9
BRANCH   3  13
ATOM     13  N   LIG    1       -3.716 -13.879 -17.508  0.00  0.00    +0.035 N 
ATOM     14  O   LIG    1       -3.655 -14.196 -16.343  0.00  0.00    -0.130 OA
ATOM     15  O   LIG    1       -3.587 -14.717 -18.370  0.00  0.00    -0.160 OA
ENDBRANCH   3  13
BRANCH   4  16
ATOM     16  O   LIG    1       -4.944 -12.062 -15.757  0.00  0.00    -0.460 OA
ATOM     17  H   LIG    1       -4.392 -12.778 -15.414  0.00  0.00    +0.406 HD
ENDBRANCH   4  16
BRANCH   5  18
ATOM     18  O   LIG    1       -5.385  -9.432 -16.433  0.00  0.00    -0.471 OA
ATOM     19  H   LIG    1       -5.385  -8.505 -16.706  0.00  0.00    +0.398 HD
ENDBRANCH   5  18
TORSDOF 5
ENDMDL
MODEL 3
REMARK VINA RESULT:      -6.2      8.667     10.617
REMARK  Name = CHEMBL167054
REMARK                            x       y       z     vdW  Elec       q    Type
REMARK                         _______ _______ _______ _____ _____    ______ ____
ROOT
ATOM      1  C   LIG    1       -3.629 -11.701 -19.260  0.00  0.00    -0.063 A 
ATOM      2  C   LIG    1       -4.262 -10.566 -18.740  0.00  0.00    +0.136 A 
ATOM      3  C   LIG    1       -4.809 -10.602 -17.476  0.00  0.00    -0.066 A 
ATOM      4  C   LIG    1       -4.734 -11.762 -16.716  0.00  0.00    +0.161 A 
ATOM      5  C   LIG    1       -4.105 -12.897 -17.228  0.00  0.00    +0.084 A 
ATOM      6  C   LIG    1       -3.559 -12.873 -18.495  0.00  0.00    +0.096 A 
ENDROOT
BRANCH   1   9
ATOM      7  C   LIG    1       -1.601  -9.793 -19.857  0.00  0.00    +0.104 C 
ATOM      8  C   LIG    1       -2.024 -10.816 -20.880  0.00  0.00    -0.188 C 
ATOM      9  C   LIG    1       -3.044 -11.665 -20.606  0.00  0.00    +0.124 C 
BRANCH   8  10
ATOM     10  C   LIG    1       -1.360 -10.889 -22.119  0.00  0.00    +0.387 C 
ATOM     11  C   LIG    1       -0.027 -11.586 -22.219  0.00  0.00    +0.068 C 
ATOM     12  O   LIG    1       -1.860 -10.392 -23.107  0.00  0.00    -0.460 OA
ENDBRANCH   8  10
ENDBRANCH   1   9
BRANCH   3  13
ATOM     13  N   LIG    1       -5.477  -9.401 -16.927  0.00  0.00    +0.035 N 
ATOM     14  O   LIG    1       -6.485  -9.519 -16.268  0.00  0.00    -0.130 OA
ATOM     15  O   LIG    1       -5.017  -8.303 -17.138  0.00  0.00    -0.160 OA
ENDBRANCH   3  13
BRANCH   4  16
ATOM     16  O   LIG    1       -5.275 -11.792 -15.471  0.00  0.00    -0.460 OA
ATOM     17  H   LIG    1       -6.092 -12.307 -15.409  0.00  0.00    +0.406 HD
ENDBRANCH   4  16
BRANCH   5  18
ATOM     18  O   LIG    1       -4.034 -14.031 -16.479  0.00  0.00    -0.471 OA
ATOM     19  H   LIG    1       -3.135 -14.361 -16.349  0.00  0.00    +0.398 HD
ENDBRANCH   5  18
TORSDOF 5
ENDMDL
MODEL 4
REMARK VINA RESULT:      -6.1      4.331      7.353
REMARK  Name = CHEMBL167054
REMARK                            x       y       z     vdW  Elec       q    Type
REMARK                         _______ _______ _______ _____ _____    ______ ____
ROOT
ATOM      1  C   LIG    1       -7.267  -6.077 -17.978  0.00  0.00    -0.063 A 
ATOM      2  C   LIG    1       -6.438  -7.201 -17.868  0.00  0.00    +0.136 A 
ATOM      3  C   LIG    1       -6.748  -8.198 -16.969  0.00  0.00    -0.066 A 
ATOM      4  C   LIG    1       -7.880  -8.091 -16.172  0.00  0.00    +0.161 A 
ATOM      5  C   LIG    1       -8.710  -6.975 -16.275  0.00  0.00    +0.084 A 
ATOM      6  C   LIG    1       -8.405  -5.968 -17.169  0.00  0.00    +0.096 A 
ENDROOT
BRANCH   1   9
ATOM      7  C   LIG    1       -9.055  -5.526 -20.125  0.00  0.00    +0.104 C 
ATOM      8  C   LIG    1       -7.820  -4.688 -19.914  0.00  0.00    -0.188 C 
ATOM      9  C   LIG    1       -6.940  -5.013 -18.935  0.00  0.00    +0.124 C 
BRANCH   8  10
ATOM     10  C   LIG    1       -7.580  -3.569 -20.733  0.00  0.00    +0.387 C 
ATOM     11  C   LIG    1       -6.428  -2.646 -20.428  0.00  0.00    +0.068 C 
ATOM     12  O   LIG    1       -8.300  -3.346 -21.685  0.00  0.00    -0.460 OA
ENDBRANCH   8  10
ENDBRANCH   1   9
BRANCH   3  13
ATOM     13  N   LIG    1       -5.872  -9.385 -16.854  0.00  0.00    +0.035 N 
ATOM     14  O   LIG    1       -4.869  -9.463 -17.526  0.00  0.00    -0.130 OA
ATOM     15  O   LIG    1       -6.158 -10.276 -16.089  0.00  0.00    -0.160 OA
ENDBRANCH   3  13
BRANCH   4  16
ATOM     16  O   LIG    1       -8.180  -9.077 -15.287  0.00  0.00    -0.460 OA
ATOM     17  H   LIG    1       -8.615  -9.844 -15.685  0.00  0.00    +0.406 HD
ENDBRANCH   4  16
BRANCH   5  18
ATOM     18  O   LIG    1       -9.818  -6.877 -15.492  0.00  0.00    -0.471 OA
ATOM     19  H   LIG    1      -10.319  -6.061 -15.621  0.00  0.00    +0.398 HD
ENDBRANCH   5  18
TORSDOF 5
ENDMDL
MODEL 5
REMARK VINA RESULT:      -5.4      8.943     10.821
REMARK  Name = CHEMBL167054
REMARK                            x       y       z     vdW  Elec       q    Type
REMARK                         _______ _______ _______ _____ _____    ______ ____
ROOT
ATOM      1  C   LIG    1       -1.585  -9.221 -20.675  0.00  0.00    -0.063 A 
ATOM      2  C   LIG    1       -2.266  -9.441 -19.471  0.00  0.00    +0.136 A 
ATOM      3  C   LIG    1       -2.966 -10.613 -19.282  0.00  0.00    -0.066 A 
ATOM      4  C   LIG    1       -2.996 -11.577 -20.281  0.00  0.00    +0.161 A 
ATOM      5  C   LIG    1       -2.320 -11.365 -21.483  0.00  0.00    +0.084 A 
ATOM      6  C   LIG    1       -1.621 -10.191 -21.685  0.00  0.00    +0.096 A 
ENDROOT
BRANCH   1   9
ATOM      7  C   LIG    1        1.262  -9.267 -20.627  0.00  0.00    +0.104 C 
ATOM      8  C   LIG    1        0.516  -7.996 -20.938  0.00  0.00    -0.188 C 
ATOM      9  C   LIG    1       -0.839  -7.973 -20.879  0.00  0.00    +0.124 C 
BRANCH   8  10
ATOM     10  C   LIG    1        1.224  -6.831 -21.289  0.00  0.00    +0.387 C 
ATOM     11  C   LIG    1        0.882  -6.096 -22.560  0.00  0.00    +0.068 C 
ATOM     12  O   LIG    1        2.109  -6.417 -20.569  0.00  0.00    -0.460 OA
ENDBRANCH   8  10
ENDBRANCH   1   9
BRANCH   3  13
ATOM     13  N   LIG    1       -3.685 -10.845 -18.010  0.00  0.00    +0.035 N 
ATOM     14  O   LIG    1       -4.495 -10.037 -17.617  0.00  0.00    -0.130 OA
ATOM     15  O   LIG    1       -3.463 -11.841 -17.362  0.00  0.00    -0.160 OA
ENDBRANCH   3  13
BRANCH   4  16
ATOM     16  O   LIG    1       -3.687 -12.730 -20.089  0.00  0.00    -0.460 OA
ATOM     17  H   LIG    1       -3.561 -13.386 -20.789  0.00  0.00    +0.406 HD
ENDBRANCH   4  16
BRANCH   5  18
ATOM     18  O   LIG    1       -2.353 -12.313 -22.458  0.00  0.00    -0.471 OA
ATOM     19  H   LIG    1       -3.106 -12.232 -23.059  0.00  0.00    +0.398 HD
ENDBRANCH   5  18
TORSDOF 5
ENDMDL
MODEL 6
REMARK VINA RESULT:      -5.2      4.249      7.074
REMARK  Name = CHEMBL167054
REMARK                            x       y       z     vdW  Elec       q    Type
REMARK                         _______ _______ _______ _____ _____    ______ ____
ROOT
ATOM      1  C   LIG    1       -6.975  -6.448 -17.839  0.00  0.00    -0.063 A 
ATOM      2  C   LIG    1       -8.078  -6.686 -17.010  0.00  0.00    +0.136 A 
ATOM      3  C   LIG    1       -8.136  -7.837 -16.255  0.00  0.00    -0.066 A 
ATOM      4  C   LIG    1       -7.102  -8.762 -16.313  0.00  0.00    +0.161 A 
ATOM      5  C   LIG    1       -5.999  -8.532 -17.136  0.00  0.00    +0.084 A 
ATOM      6  C   LIG    1       -5.935  -7.385 -17.901  0.00  0.00    +0.096 A 
ENDROOT
BRANCH   1   9
ATOM      7  C   LIG    1       -8.975  -5.958 -19.805  0.00  0.00    +0.104 C 
ATOM      8  C   LIG    1       -7.900  -4.939 -19.527  0.00  0.00    -0.188 C 
ATOM      9  C   LIG    1       -6.910  -5.223 -18.644  0.00  0.00    +0.124 C 
BRANCH   8  10
ATOM     10  C   LIG    1       -7.921  -3.695 -20.184  0.00  0.00    +0.387 C 
ATOM     11  C   LIG    1       -7.446  -2.457 -19.467  0.00  0.00    +0.068 C 
ATOM     12  O   LIG    1       -8.321  -3.618 -21.328  0.00  0.00    -0.460 OA
ENDBRANCH   8  10
ENDBRANCH   1   9
BRANCH   3  13
ATOM     13  N   LIG    1       -9.302  -8.087 -15.379  0.00  0.00    +0.035 N 
ATOM     14  O   LIG    1       -9.628  -7.262 -14.557  0.00  0.00    -0.130 OA
ATOM     15  O   LIG    1       -9.929  -9.115 -15.486  0.00  0.00    -0.160 OA
ENDBRANCH   3  13
BRANCH   4  16
ATOM     16  O   LIG    1       -7.164  -9.895 -15.567  0.00  0.00    -0.460 OA
ATOM     17  H   LIG    1       -7.809 -10.541 -15.885  0.00  0.00    +0.406 HD
ENDBRANCH   4  16
BRANCH   5  18
ATOM     18  O   LIG    1       -4.989  -9.442 -17.189  0.00  0.00    -0.471 OA
ATOM     19  H   LIG    1       -4.194  -9.175 -16.707  0.00  0.00    +0.398 HD
ENDBRANCH   5  18
TORSDOF 5
ENDMDL
MODEL 7
REMARK VINA RESULT:      -5.2     10.245     12.469
REMARK  Name = CHEMBL167054
REMARK                            x       y       z     vdW  Elec       q    Type
REMARK                         _______ _______ _______ _____ _____    ______ ____
ROOT
ATOM      1  C   LIG    1       -3.361 -14.130 -18.565  0.00  0.00    -0.063 A 
ATOM      2  C   LIG    1       -3.100 -13.053 -19.421  0.00  0.00    +0.136 A 
ATOM      3  C   LIG    1       -3.469 -11.777 -19.053  0.00  0.00    -0.066 A 
ATOM      4  C   LIG    1       -4.098 -11.557 -17.835  0.00  0.00    +0.161 A 
ATOM      5  C   LIG    1       -4.361 -12.625 -16.977  0.00  0.00    +0.084 A 
ATOM      6  C   LIG    1       -4.001 -13.907 -17.339  0.00  0.00    +0.096 A 
ENDROOT
BRANCH   1   9
ATOM      7  C   LIG    1       -3.915 -15.046 -21.204  0.00  0.00    +0.104 C 
ATOM      8  C   LIG    1       -3.155 -15.910 -20.230  0.00  0.00    -0.188 C 
ATOM      9  C   LIG    1       -2.969 -15.490 -18.955  0.00  0.00    +0.124 C 
BRANCH   8  10
ATOM     10  C   LIG    1       -2.640 -17.152 -20.644  0.00  0.00    +0.387 C 
ATOM     11  C   LIG    1       -1.531 -17.806 -19.860  0.00  0.00    +0.068 C 
ATOM     12  O   LIG    1       -3.087 -17.698 -21.633  0.00  0.00    -0.460 OA
ENDBRANCH   8  10
ENDBRANCH   1   9
BRANCH   3  13
ATOM     13  N   LIG    1       -3.193 -10.640 -19.958  0.00  0.00    +0.035 N 
ATOM     14  O   LIG    1       -2.175  -9.999 -19.830  0.00  0.00    -0.130 OA
ATOM     15  O   LIG    1       -3.984 -10.351 -20.826  0.00  0.00    -0.160 OA
ENDBRANCH   3  13
BRANCH   4  16
ATOM     16  O   LIG    1       -4.459 -10.298 -17.477  0.00  0.00    -0.460 OA
ATOM     17  H   LIG    1       -4.634  -9.711 -18.226  0.00  0.00    +0.406 HD
ENDBRANCH   4  16
BRANCH   5  18
ATOM     18  O   LIG    1       -4.977 -12.403 -15.785  0.00  0.00    -0.471 OA
ATOM     19  H   LIG    1       -5.803 -12.894 -15.671  0.00  0.00    +0.398 HD
ENDBRANCH   5  18
TORSDOF 5
ENDMDL
MODEL 8
REMARK VINA RESULT:      -5.0     10.452     12.289
REMARK  Name = CHEMBL167054
REMARK                            x       y       z     vdW  Elec       q    Type
REMARK                         _______ _______ _______ _____ _____    ______ ____
ROOT
ATOM      1  C   LIG    1       -3.389 -13.859 -20.298  0.00  0.00    -0.063 A 
ATOM      2  C   LIG    1       -3.964 -13.438 -19.092  0.00  0.00    +0.136 A 
ATOM      3  C   LIG    1       -3.862 -12.119 -18.706  0.00  0.00    -0.066 A 
ATOM      4  C   LIG    1       -3.192 -11.206 -19.510  0.00  0.00    +0.161 A 
ATOM      5  C   LIG    1       -2.618 -11.618 -20.712  0.00  0.00    +0.084 A 
ATOM      6  C   LIG    1       -2.709 -12.938 -21.105  0.00  0.00    +0.096 A 
ENDROOT
BRANCH   1   9
ATOM      7  C   LIG    1       -1.801 -15.829 -18.993  0.00  0.00    +0.104 C 
ATOM      8  C   LIG    1       -2.805 -16.220 -20.047  0.00  0.00    -0.188 C 
ATOM      9  C   LIG    1       -3.496 -15.263 -20.713  0.00  0.00    +0.124 C 
BRANCH   8  10
ATOM     10  C   LIG    1       -3.026 -17.579 -20.340  0.00  0.00    +0.387 C 
ATOM     11  C   LIG    1       -4.356 -18.024 -20.891  0.00  0.00    +0.068 C 
ATOM     12  O   LIG    1       -2.145 -18.393 -20.149  0.00  0.00    -0.460 OA
ENDBRANCH   8  10
ENDBRANCH   1   9
BRANCH   3  13
ATOM     13  N   LIG    1       -4.469 -11.675 -17.432  0.00  0.00    +0.035 N 
ATOM     14  O   LIG    1       -4.407 -12.384 -16.453  0.00  0.00    -0.130 OA
ATOM     15  O   LIG    1       -5.028 -10.605 -17.368  0.00  0.00    -0.160 OA
ENDBRANCH   3  13
BRANCH   4  16
ATOM     16  O   LIG    1       -3.095  -9.908 -19.124  0.00  0.00    -0.460 OA
ATOM     17  H   LIG    1       -2.746  -9.319 -19.807  0.00  0.00    +0.406 HD
ENDBRANCH   4  16
BRANCH   5  18
ATOM     18  O   LIG    1       -1.963 -10.719 -21.495  0.00  0.00    -0.471 OA
ATOM     19  H   LIG    1       -1.424 -11.121 -22.190  0.00  0.00    +0.398 HD
ENDBRANCH   5  18
TORSDOF 5
ENDMDL
MODEL 9
REMARK VINA RESULT:      -5.0      5.065      7.669
REMARK  Name = CHEMBL167054
REMARK                            x       y       z     vdW  Elec       q    Type
REMARK                         _______ _______ _______ _____ _____    ______ ____
ROOT
ATOM      1  C   LIG    1       -6.227  -8.475 -17.431  0.00  0.00    -0.063 A 
ATOM      2  C   LIG    1       -6.481  -7.264 -18.088  0.00  0.00    +0.136 A 
ATOM      3  C   LIG    1       -7.569  -6.501 -17.726  0.00  0.00    -0.066 A 
ATOM      4  C   LIG    1       -8.415  -6.928 -16.711  0.00  0.00    +0.161 A 
ATOM      5  C   LIG    1       -8.169  -8.133 -16.053  0.00  0.00    +0.084 A 
ATOM      6  C   LIG    1       -7.085  -8.908 -16.411  0.00  0.00    +0.096 A 
ENDROOT
BRANCH   1   9
ATOM      7  C   LIG    1       -5.680 -10.885 -16.015  0.00  0.00    +0.104 C 
ATOM      8  C   LIG    1       -4.843 -10.479 -17.201  0.00  0.00    -0.188 C 
ATOM      9  C   LIG    1       -5.068  -9.290 -17.814  0.00  0.00    +0.124 C 
BRANCH   8  10
ATOM     10  C   LIG    1       -3.828 -11.332 -17.672  0.00  0.00    +0.387 C 
ATOM     11  C   LIG    1       -3.129 -11.025 -18.972  0.00  0.00    +0.068 C 
ATOM     12  O   LIG    1       -3.514 -12.315 -17.031  0.00  0.00    -0.460 OA
ENDBRANCH   8  10
ENDBRANCH   1   9
BRANCH   3  13
ATOM     13  N   LIG    1       -7.836  -5.221 -18.420  0.00  0.00    +0.035 N 
ATOM     14  O   LIG    1       -7.029  -4.322 -18.361  0.00  0.00    -0.130 OA
ATOM     15  O   LIG    1       -8.859  -5.075 -19.047  0.00  0.00    -0.160 OA
ENDBRANCH   3  13
BRANCH   4  16
ATOM     16  O   LIG    1       -9.487  -6.172 -16.359  0.00  0.00    -0.460 OA
ATOM     17  H   LIG    1       -9.632  -5.405 -16.930  0.00  0.00    +0.406 HD
ENDBRANCH   4  16
BRANCH   5  18
ATOM     18  O   LIG    1       -9.002  -8.547 -15.059  0.00  0.00    -0.471 OA
ATOM     19  H   LIG    1       -9.115  -7.902 -14.348  0.00  0.00    +0.398 HD
ENDBRANCH   5  18
TORSDOF 5
ENDMDL
