MODEL 1
REMARK VINA RESULT:      -9.5      0.000      0.000
REMARK  Name = CHEMBL265218
REMARK                            x       y       z     vdW  Elec       q    Type
REMARK                         _______ _______ _______ _____ _____    ______ ____
ROOT
ATOM      1  C   LIG    1       -9.955  -6.219 -22.159  0.00  0.00    +0.136 C 
ATOM      2  C   LIG    1       -9.220  -5.217 -21.629  0.00  0.00    -0.186 C 
ATOM      3  C   LIG    1       -8.941  -5.022 -20.209  0.00  0.00    +0.422 C 
ATOM      4  C   LIG    1       -8.114  -3.833 -20.023  0.00  0.00    -0.187 C 
ATOM      5  C   LIG    1       -7.839  -3.224 -21.376  0.00  0.00    +0.100 C 
ATOM      6  C   LIG    1       -7.669  -3.359 -18.839  0.00  0.00    +0.136 C 
ATOM      7  O   LIG    1       -9.339  -5.745 -19.313  0.00  0.00    -0.433 OA
ATOM      8  C   LIG    1       -8.544  -4.114 -22.407  0.00  0.00    +0.100 C 
ENDROOT
BRANCH   1  14
ATOM      9  C   LIG    1      -11.190  -5.970 -24.303  0.00  0.00    +0.139 A 
ATOM     10  C   LIG    1      -11.266  -6.120 -25.670  0.00  0.00    -0.066 A 
ATOM     11  C   LIG    1      -10.204  -6.673 -26.372  0.00  0.00    +0.160 A 
ATOM     12  C   LIG    1       -9.053  -7.081 -25.696  0.00  0.00    +0.086 A 
ATOM     13  C   LIG    1       -8.968  -6.935 -24.327  0.00  0.00    +0.081 A 
ATOM     14  C   LIG    1      -10.040  -6.377 -23.617  0.00  0.00    -0.061 A 
BRANCH  10  15
ATOM     15  N   LIG    1      -12.484  -5.690 -26.393  0.00  0.00    +0.034 N 
ATOM     16  O   LIG    1      -13.567  -6.107 -26.054  0.00  0.00    -0.130 OA
ATOM     17  O   LIG    1      -12.396  -4.922 -27.322  0.00  0.00    -0.159 OA
ENDBRANCH  10  15
BRANCH  11  18
ATOM     18  O   LIG    1      -10.284  -6.818 -27.720  0.00  0.00    -0.460 OA
ATOM     19  H   LIG    1       -9.484  -7.179 -28.126  0.00  0.00    +0.406 HD
ENDBRANCH  11  18
BRANCH  12  20
ATOM     20  O   LIG    1       -8.014  -7.623 -26.388  0.00  0.00    -0.471 OA
ATOM     21  H   LIG    1       -7.866  -8.561 -26.202  0.00  0.00    +0.397 HD
ENDBRANCH  12  20
ENDBRANCH   1  14
BRANCH   6  22
ATOM     22  C   LIG    1       -6.953  -2.077 -18.783  0.00  0.00    -0.061 A 
ATOM     23  C   LIG    1       -7.572  -0.950 -18.225  0.00  0.00    +0.082 A 
ATOM     24  C   LIG    1       -6.893   0.251 -18.175  0.00  0.00    +0.086 A 
ATOM     25  C   LIG    1       -5.596   0.341 -18.679  0.00  0.00    +0.160 A 
ATOM     26  C   LIG    1       -4.982  -0.774 -19.231  0.00  0.00    -0.066 A 
ATOM     27  C   LIG    1       -5.649  -1.979 -19.280  0.00  0.00    +0.139 A 
BRANCH  26  28
ATOM     28  N   LIG    1       -3.605  -0.671 -19.764  0.00  0.00    +0.034 N 
ATOM     29  O   LIG    1       -2.741  -1.409 -19.352  0.00  0.00    -0.130 OA
ATOM     30  O   LIG    1       -3.344   0.151 -20.612  0.00  0.00    -0.159 OA
ENDBRANCH  26  28
BRANCH  24  31
ATOM     31  O   LIG    1       -7.492   1.346 -17.634  0.00  0.00    -0.471 OA
ATOM     32  H   LIG    1       -7.504   1.350 -16.668  0.00  0.00    +0.397 HD
ENDBRANCH  24  31
BRANCH  25  33
ATOM     33  O   LIG    1       -4.932   1.524 -18.628  0.00  0.00    -0.460 OA
ATOM     34  H   LIG    1       -4.429   1.660 -17.813  0.00  0.00    +0.406 HD
ENDBRANCH  25  33
ENDBRANCH   6  22
TORSDOF 8
ENDMDL
MODEL 2
REMARK VINA RESULT:      -9.0      1.062      2.241
REMARK  Name = CHEMBL265218
REMARK                            x       y       z     vdW  Elec       q    Type
REMARK                         _______ _______ _______ _____ _____    ______ ____
ROOT
ATOM      1  C   LIG    1      -10.149  -6.191 -22.549  0.00  0.00    +0.136 C 
ATOM      2  C   LIG    1       -9.340  -5.265 -21.990  0.00  0.00    -0.186 C 
ATOM      3  C   LIG    1       -9.045  -5.137 -20.566  0.00  0.00    +0.422 C 
ATOM      4  C   LIG    1       -8.130  -4.021 -20.345  0.00  0.00    -0.187 C 
ATOM      5  C   LIG    1       -7.811  -3.391 -21.678  0.00  0.00    +0.100 C 
ATOM      6  C   LIG    1       -7.649  -3.620 -19.147  0.00  0.00    +0.136 C 
ATOM      7  O   LIG    1       -9.496  -5.857 -19.691  0.00  0.00    -0.433 OA
ATOM      8  C   LIG    1       -8.583  -4.192 -22.735  0.00  0.00    +0.100 C 
ENDROOT
BRANCH   1  14
ATOM      9  C   LIG    1      -11.459  -6.025 -24.656  0.00  0.00    +0.139 A 
ATOM     10  C   LIG    1      -11.548  -6.125 -26.027  0.00  0.00    -0.066 A 
ATOM     11  C   LIG    1      -10.436  -6.492 -26.773  0.00  0.00    +0.160 A 
ATOM     12  C   LIG    1       -9.223  -6.763 -26.139  0.00  0.00    +0.086 A 
ATOM     13  C   LIG    1       -9.126  -6.667 -24.766  0.00  0.00    +0.081 A 
ATOM     14  C   LIG    1      -10.247  -6.296 -24.012  0.00  0.00    -0.061 A 
BRANCH  10  15
ATOM     15  N   LIG    1      -12.831  -5.839 -26.707  0.00  0.00    +0.034 N 
ATOM     16  O   LIG    1      -13.247  -4.704 -26.760  0.00  0.00    -0.130 OA
ATOM     17  O   LIG    1      -13.464  -6.738 -27.208  0.00  0.00    -0.159 OA
ENDBRANCH  10  15
BRANCH  11  18
ATOM     18  O   LIG    1      -10.529  -6.588 -28.125  0.00  0.00    -0.460 OA
ATOM     19  H   LIG    1      -11.178  -5.989 -28.518  0.00  0.00    +0.406 HD
ENDBRANCH  11  18
BRANCH  12  20
ATOM     20  O   LIG    1       -8.137  -7.123 -26.874  0.00  0.00    -0.471 OA
ATOM     21  H   LIG    1       -7.349  -7.313 -26.344  0.00  0.00    +0.397 HD
ENDBRANCH  12  20
ENDBRANCH   1  14
BRANCH   6  22
ATOM     22  C   LIG    1       -6.839  -2.398 -19.053  0.00  0.00    -0.061 A 
ATOM     23  C   LIG    1       -5.669  -2.270 -19.813  0.00  0.00    +0.082 A 
ATOM     24  C   LIG    1       -4.913  -1.119 -19.721  0.00  0.00    +0.086 A 
ATOM     25  C   LIG    1       -5.314  -0.087 -18.872  0.00  0.00    +0.160 A 
ATOM     26  C   LIG    1       -6.472  -0.213 -18.119  0.00  0.00    -0.066 A 
ATOM     27  C   LIG    1       -7.237  -1.356 -18.209  0.00  0.00    +0.139 A 
BRANCH  26  28
ATOM     28  N   LIG    1       -6.892   0.886 -17.220  0.00  0.00    +0.034 N 
ATOM     29  O   LIG    1       -7.387   1.888 -17.681  0.00  0.00    -0.130 OA
ATOM     30  O   LIG    1       -6.739   0.781 -16.025  0.00  0.00    -0.159 OA
ENDBRANCH  26  28
BRANCH  24  31
ATOM     31  O   LIG    1       -3.777  -0.992 -20.457  0.00  0.00    -0.471 OA
ATOM     32  H   LIG    1       -3.063  -1.585 -20.184  0.00  0.00    +0.397 HD
ENDBRANCH  24  31
BRANCH  25  33
ATOM     33  O   LIG    1       -4.567   1.044 -18.783  0.00  0.00    -0.460 OA
ATOM     34  H   LIG    1       -5.067   1.858 -18.932  0.00  0.00    +0.406 HD
ENDBRANCH  25  33
ENDBRANCH   6  22
TORSDOF 8
ENDMDL
MODEL 3
REMARK VINA RESULT:      -7.5      9.243     11.104
REMARK  Name = CHEMBL265218
REMARK                            x       y       z     vdW  Elec       q    Type
REMARK                         _______ _______ _______ _____ _____    ______ ____
ROOT
ATOM      1  C   LIG    1       -3.279 -11.730 -20.497  0.00  0.00    +0.136 C 
ATOM      2  C   LIG    1       -2.356 -10.829 -20.900  0.00  0.00    -0.186 C 
ATOM      3  C   LIG    1       -1.845 -10.680 -22.259  0.00  0.00    +0.422 C 
ATOM      4  C   LIG    1       -0.861  -9.602 -22.306  0.00  0.00    -0.187 C 
ATOM      5  C   LIG    1       -0.721  -9.021 -20.921  0.00  0.00    +0.100 C 
ATOM      6  C   LIG    1       -0.190  -9.194 -23.405  0.00  0.00    +0.136 C 
ATOM      7  O   LIG    1       -2.190 -11.354 -23.214  0.00  0.00    -0.433 OA
ATOM      8  C   LIG    1       -1.683  -9.805 -20.019  0.00  0.00    +0.100 C 
ENDROOT
BRANCH   1  14
ATOM      9  C   LIG    1       -4.437 -10.519 -18.660  0.00  0.00    +0.139 A 
ATOM     10  C   LIG    1       -4.931 -10.473 -17.375  0.00  0.00    -0.066 A 
ATOM     11  C   LIG    1       -4.810 -11.576 -16.542  0.00  0.00    +0.160 A 
ATOM     12  C   LIG    1       -4.186 -12.737 -17.000  0.00  0.00    +0.086 A 
ATOM     13  C   LIG    1       -3.686 -12.791 -18.285  0.00  0.00    +0.081 A 
ATOM     14  C   LIG    1       -3.808 -11.678 -19.128  0.00  0.00    -0.061 A 
BRANCH  10  15
ATOM     15  N   LIG    1       -5.595  -9.245 -16.883  0.00  0.00    +0.034 N 
ATOM     16  O   LIG    1       -5.107  -8.162 -17.110  0.00  0.00    -0.130 OA
ATOM     17  O   LIG    1       -6.624  -9.324 -16.254  0.00  0.00    -0.159 OA
ENDBRANCH  10  15
BRANCH  11  18
ATOM     18  O   LIG    1       -5.300 -11.526 -15.276  0.00  0.00    -0.460 OA
ATOM     19  H   LIG    1       -4.999 -10.762 -14.767  0.00  0.00    +0.406 HD
ENDBRANCH  11  18
BRANCH  12  20
ATOM     20  O   LIG    1       -4.069 -13.815 -16.179  0.00  0.00    -0.471 OA
ATOM     21  H   LIG    1       -3.690 -13.610 -15.313  0.00  0.00    +0.397 HD
ENDBRANCH  12  20
ENDBRANCH   1  14
BRANCH   6  22
ATOM     22  C   LIG    1        0.871  -8.184 -23.285  0.00  0.00    -0.061 A 
ATOM     23  C   LIG    1        0.551  -6.820 -23.323  0.00  0.00    +0.082 A 
ATOM     24  C   LIG    1        1.552  -5.877 -23.208  0.00  0.00    +0.086 A 
ATOM     25  C   LIG    1        2.878  -6.282 -23.056  0.00  0.00    +0.160 A 
ATOM     26  C   LIG    1        3.196  -7.632 -23.019  0.00  0.00    -0.066 A 
ATOM     27  C   LIG    1        2.203  -8.581 -23.126  0.00  0.00    +0.139 A 
BRANCH  26  28
ATOM     28  N   LIG    1        4.606  -8.054 -22.857  0.00  0.00    +0.034 N 
ATOM     29  O   LIG    1        5.152  -8.683 -23.733  0.00  0.00    -0.130 OA
ATOM     30  O   LIG    1        5.211  -7.769 -21.849  0.00  0.00    -0.159 OA
ENDBRANCH  26  28
BRANCH  24  31
ATOM     31  O   LIG    1        1.244  -4.553 -23.245  0.00  0.00    -0.471 OA
ATOM     32  H   LIG    1        1.989  -3.970 -23.044  0.00  0.00    +0.397 HD
ENDBRANCH  24  31
BRANCH  25  33
ATOM     33  O   LIG    1        3.860  -5.351 -22.945  0.00  0.00    -0.460 OA
ATOM     34  H   LIG    1        4.736  -5.669 -23.203  0.00  0.00    +0.406 HD
ENDBRANCH  25  33
ENDBRANCH   6  22
TORSDOF 8
ENDMDL
MODEL 4
REMARK VINA RESULT:      -7.5      9.285     11.000
REMARK  Name = CHEMBL265218
REMARK                            x       y       z     vdW  Elec       q    Type
REMARK                         _______ _______ _______ _____ _____    ______ ____
ROOT
ATOM      1  C   LIG    1       -3.106 -11.907 -20.608  0.00  0.00    +0.136 C 
ATOM      2  C   LIG    1       -2.200 -10.987 -21.006  0.00  0.00    -0.186 C 
ATOM      3  C   LIG    1       -1.663 -10.847 -22.357  0.00  0.00    +0.422 C 
ATOM      4  C   LIG    1       -0.710  -9.742 -22.402  0.00  0.00    -0.187 C 
ATOM      5  C   LIG    1       -0.618  -9.132 -21.025  0.00  0.00    +0.100 C 
ATOM      6  C   LIG    1       -0.026  -9.334 -23.493  0.00  0.00    +0.136 C 
ATOM      7  O   LIG    1       -1.967 -11.549 -23.306  0.00  0.00    -0.433 OA
ATOM      8  C   LIG    1       -1.578  -9.928 -20.130  0.00  0.00    +0.100 C 
ENDROOT
BRANCH   1  14
ATOM      9  C   LIG    1       -4.263 -10.667 -18.789  0.00  0.00    +0.139 A 
ATOM     10  C   LIG    1       -4.789 -10.613 -17.517  0.00  0.00    -0.066 A 
ATOM     11  C   LIG    1       -4.731 -11.727 -16.691  0.00  0.00    +0.160 A 
ATOM     12  C   LIG    1       -4.139 -12.907 -17.144  0.00  0.00    +0.086 A 
ATOM     13  C   LIG    1       -3.609 -12.970 -18.416  0.00  0.00    +0.081 A 
ATOM     14  C   LIG    1       -3.668 -11.846 -19.252  0.00  0.00    -0.061 A 
BRANCH  10  15
ATOM     15  N   LIG    1       -5.417  -9.365 -17.030  0.00  0.00    +0.034 N 
ATOM     16  O   LIG    1       -6.432  -9.415 -16.376  0.00  0.00    -0.130 OA
ATOM     17  O   LIG    1       -4.915  -8.296 -17.287  0.00  0.00    -0.159 OA
ENDBRANCH  10  15
BRANCH  11  18
ATOM     18  O   LIG    1       -5.251 -11.669 -15.438  0.00  0.00    -0.460 OA
ATOM     19  H   LIG    1       -5.025 -10.862 -14.955  0.00  0.00    +0.406 HD
ENDBRANCH  11  18
BRANCH  12  20
ATOM     20  O   LIG    1       -4.084 -13.996 -16.330  0.00  0.00    -0.471 OA
ATOM     21  H   LIG    1       -4.676 -14.715 -16.595  0.00  0.00    +0.397 HD
ENDBRANCH  12  20
ENDBRANCH   1  14
BRANCH   6  22
ATOM     22  C   LIG    1        1.002  -8.291 -23.368  0.00  0.00    -0.061 A 
ATOM     23  C   LIG    1        2.272  -8.612 -22.870  0.00  0.00    +0.082 A 
ATOM     24  C   LIG    1        3.233  -7.628 -22.756  0.00  0.00    +0.086 A 
ATOM     25  C   LIG    1        2.939  -6.318 -23.136  0.00  0.00    +0.160 A 
ATOM     26  C   LIG    1        1.682  -6.000 -23.630  0.00  0.00    -0.066 A 
ATOM     27  C   LIG    1        0.718  -6.976 -23.753  0.00  0.00    +0.139 A 
BRANCH  26  28
ATOM     28  N   LIG    1        1.377  -4.608 -24.031  0.00  0.00    +0.034 N 
ATOM     29  O   LIG    1        2.054  -4.059 -24.870  0.00  0.00    -0.130 OA
ATOM     30  O   LIG    1        0.452  -4.020 -23.521  0.00  0.00    -0.159 OA
ENDBRANCH  26  28
BRANCH  24  31
ATOM     31  O   LIG    1        4.466  -7.936 -22.272  0.00  0.00    -0.471 OA
ATOM     32  H   LIG    1        4.626  -7.617 -21.373  0.00  0.00    +0.397 HD
ENDBRANCH  24  31
BRANCH  25  33
ATOM     33  O   LIG    1        3.887  -5.352 -23.022  0.00  0.00    -0.460 OA
ATOM     34  H   LIG    1        3.952  -4.771 -23.793  0.00  0.00    +0.406 HD
ENDBRANCH  25  33
ENDBRANCH   6  22
TORSDOF 8
ENDMDL
MODEL 5
REMARK VINA RESULT:      -7.5      9.278     11.778
REMARK  Name = CHEMBL265218
REMARK                            x       y       z     vdW  Elec       q    Type
REMARK                         _______ _______ _______ _____ _____    ______ ____
ROOT
ATOM      1  C   LIG    1       -0.063  -9.335 -23.460  0.00  0.00    +0.136 C 
ATOM      2  C   LIG    1       -0.751  -9.742 -22.370  0.00  0.00    -0.186 C 
ATOM      3  C   LIG    1       -1.708 -10.844 -22.327  0.00  0.00    +0.422 C 
ATOM      4  C   LIG    1       -2.246 -10.982 -20.977  0.00  0.00    -0.187 C 
ATOM      5  C   LIG    1       -1.617  -9.929 -20.099  0.00  0.00    +0.100 C 
ATOM      6  C   LIG    1       -3.155 -11.900 -20.581  0.00  0.00    +0.136 C 
ATOM      7  O   LIG    1       -2.011 -11.544 -23.277  0.00  0.00    -0.433 OA
ATOM      8  C   LIG    1       -0.654  -9.136 -20.992  0.00  0.00    +0.100 C 
ENDROOT
BRANCH   1  14
ATOM      9  C   LIG    1        0.708  -6.986 -23.722  0.00  0.00    +0.139 A 
ATOM     10  C   LIG    1        1.683  -6.021 -23.602  0.00  0.00    -0.066 A 
ATOM     11  C   LIG    1        2.931  -6.350 -23.092  0.00  0.00    +0.160 A 
ATOM     12  C   LIG    1        3.206  -7.661 -22.700  0.00  0.00    +0.086 A 
ATOM     13  C   LIG    1        2.235  -8.634 -22.818  0.00  0.00    +0.081 A 
ATOM     14  C   LIG    1        0.975  -8.303 -23.332  0.00  0.00    -0.061 A 
BRANCH  10  15
ATOM     15  N   LIG    1        1.398  -4.628 -24.016  0.00  0.00    +0.034 N 
ATOM     16  O   LIG    1        0.511  -4.007 -23.478  0.00  0.00    -0.130 OA
ATOM     17  O   LIG    1        2.052  -4.112 -24.892  0.00  0.00    -0.159 OA
ENDBRANCH  10  15
BRANCH  11  18
ATOM     18  O   LIG    1        3.888  -5.394 -22.974  0.00  0.00    -0.460 OA
ATOM     19  H   LIG    1        3.582  -4.502 -23.188  0.00  0.00    +0.406 HD
ENDBRANCH  11  18
BRANCH  12  20
ATOM     20  O   LIG    1        4.431  -7.979 -22.201  0.00  0.00    -0.471 OA
ATOM     21  H   LIG    1        4.488  -7.927 -21.237  0.00  0.00    +0.397 HD
ENDBRANCH  12  20
ENDBRANCH   1  14
BRANCH   6  22
ATOM     22  C   LIG    1       -3.711 -11.845 -19.221  0.00  0.00    -0.061 A 
ATOM     23  C   LIG    1       -3.647 -12.970 -18.389  0.00  0.00    +0.082 A 
ATOM     24  C   LIG    1       -4.170 -12.910 -17.113  0.00  0.00    +0.086 A 
ATOM     25  C   LIG    1       -4.761 -11.732 -16.656  0.00  0.00    +0.160 A 
ATOM     26  C   LIG    1       -4.824 -10.617 -17.479  0.00  0.00    -0.066 A 
ATOM     27  C   LIG    1       -4.299 -10.665 -18.752  0.00  0.00    +0.139 A 
BRANCH  26  28
ATOM     28  N   LIG    1       -5.452  -9.370 -16.987  0.00  0.00    +0.034 N 
ATOM     29  O   LIG    1       -4.914  -8.305 -17.180  0.00  0.00    -0.130 OA
ATOM     30  O   LIG    1       -6.504  -9.417 -16.391  0.00  0.00    -0.159 OA
ENDBRANCH  26  28
BRANCH  24  31
ATOM     31  O   LIG    1       -4.110 -14.001 -16.303  0.00  0.00    -0.471 OA
ATOM     32  H   LIG    1       -4.822 -14.045 -15.650  0.00  0.00    +0.397 HD
ENDBRANCH  24  31
BRANCH  25  33
ATOM     33  O   LIG    1       -5.275 -11.677 -15.400  0.00  0.00    -0.460 OA
ATOM     34  H   LIG    1       -6.173 -11.321 -15.357  0.00  0.00    +0.406 HD
ENDBRANCH  25  33
ENDBRANCH   6  22
TORSDOF 8
ENDMDL
MODEL 6
REMARK VINA RESULT:      -7.5      9.272     12.152
REMARK  Name = CHEMBL265218
REMARK                            x       y       z     vdW  Elec       q    Type
REMARK                         _______ _______ _______ _____ _____    ______ ____
ROOT
ATOM      1  C   LIG    1       -0.258  -9.246 -23.298  0.00  0.00    +0.136 C 
ATOM      2  C   LIG    1       -0.938  -9.652 -22.203  0.00  0.00    -0.186 C 
ATOM      3  C   LIG    1       -1.910 -10.740 -22.157  0.00  0.00    +0.422 C 
ATOM      4  C   LIG    1       -2.434 -10.884 -20.802  0.00  0.00    -0.187 C 
ATOM      5  C   LIG    1       -1.778  -9.847 -19.923  0.00  0.00    +0.100 C 
ATOM      6  C   LIG    1       -3.351 -11.792 -20.402  0.00  0.00    +0.136 C 
ATOM      7  O   LIG    1       -2.235 -11.428 -23.110  0.00  0.00    -0.433 OA
ATOM      8  C   LIG    1       -0.814  -9.060 -20.821  0.00  0.00    +0.100 C 
ENDROOT
BRANCH   1  14
ATOM      9  C   LIG    1        2.127  -8.619 -22.984  0.00  0.00    +0.139 A 
ATOM     10  C   LIG    1        3.114  -7.664 -22.867  0.00  0.00    -0.066 A 
ATOM     11  C   LIG    1        2.792  -6.316 -22.940  0.00  0.00    +0.160 A 
ATOM     12  C   LIG    1        1.467  -5.920 -23.130  0.00  0.00    +0.086 A 
ATOM     13  C   LIG    1        0.473  -6.869 -23.246  0.00  0.00    +0.081 A 
ATOM     14  C   LIG    1        0.796  -8.230 -23.174  0.00  0.00    -0.061 A 
BRANCH  10  15
ATOM     15  N   LIG    1        4.521  -8.077 -22.666  0.00  0.00    +0.034 N 
ATOM     16  O   LIG    1        5.105  -8.676 -23.538  0.00  0.00    -0.130 OA
ATOM     17  O   LIG    1        5.085  -7.816 -21.629  0.00  0.00    -0.159 OA
ENDBRANCH  10  15
BRANCH  11  18
ATOM     18  O   LIG    1        3.768  -5.379 -22.825  0.00  0.00    -0.460 OA
ATOM     19  H   LIG    1        3.517  -4.506 -23.154  0.00  0.00    +0.406 HD
ENDBRANCH  11  18
BRANCH  12  20
ATOM     20  O   LIG    1        1.156  -4.598 -23.199  0.00  0.00    -0.471 OA
ATOM     21  H   LIG    1        1.133  -4.154 -22.339  0.00  0.00    +0.397 HD
ENDBRANCH  12  20
ENDBRANCH   1  14
BRANCH   6  22
ATOM     22  C   LIG    1       -3.888 -11.740 -19.036  0.00  0.00    -0.061 A 
ATOM     23  C   LIG    1       -3.797 -12.862 -18.201  0.00  0.00    +0.082 A 
ATOM     24  C   LIG    1       -4.303 -12.806 -16.918  0.00  0.00    +0.086 A 
ATOM     25  C   LIG    1       -4.904 -11.635 -16.456  0.00  0.00    +0.160 A 
ATOM     26  C   LIG    1       -4.995 -10.524 -17.281  0.00  0.00    -0.066 A 
ATOM     27  C   LIG    1       -4.487 -10.567 -18.562  0.00  0.00    +0.139 A 
BRANCH  26  28
ATOM     28  N   LIG    1       -5.634  -9.285 -16.783  0.00  0.00    +0.034 N 
ATOM     29  O   LIG    1       -6.633  -9.350 -16.105  0.00  0.00    -0.130 OA
ATOM     30  O   LIG    1       -5.158  -8.207 -17.055  0.00  0.00    -0.159 OA
ENDBRANCH  26  28
BRANCH  24  31
ATOM     31  O   LIG    1       -4.216 -13.894 -16.107  0.00  0.00    -0.471 OA
ATOM     32  H   LIG    1       -3.422 -13.910 -15.555  0.00  0.00    +0.397 HD
ENDBRANCH  24  31
BRANCH  25  33
ATOM     33  O   LIG    1       -5.402 -11.584 -15.193  0.00  0.00    -0.460 OA
ATOM     34  H   LIG    1       -6.133 -12.196 -15.033  0.00  0.00    +0.406 HD
ENDBRANCH  25  33
ENDBRANCH   6  22
TORSDOF 8
ENDMDL
MODEL 7
REMARK VINA RESULT:      -7.5      9.232     11.326
REMARK  Name = CHEMBL265218
REMARK                            x       y       z     vdW  Elec       q    Type
REMARK                         _______ _______ _______ _____ _____    ______ ____
ROOT
ATOM      1  C   LIG    1       -3.460 -10.180 -20.725  0.00  0.00    +0.136 C 
ATOM      2  C   LIG    1       -2.291  -9.522 -20.886  0.00  0.00    -0.186 C 
ATOM      3  C   LIG    1       -1.858  -8.837 -22.101  0.00  0.00    +0.422 C 
ATOM      4  C   LIG    1       -0.541  -8.242 -21.894  0.00  0.00    -0.187 C 
ATOM      5  C   LIG    1       -0.091  -8.550 -20.487  0.00  0.00    +0.100 C 
ATOM      6  C   LIG    1        0.158  -7.535 -22.809  0.00  0.00    +0.136 C 
ATOM      7  O   LIG    1       -2.502  -8.770 -23.133  0.00  0.00    -0.433 OA
ATOM      8  C   LIG    1       -1.216  -9.367 -19.838  0.00  0.00    +0.100 C 
ENDROOT
BRANCH   1  14
ATOM      9  C   LIG    1       -3.586 -12.046 -19.086  0.00  0.00    +0.139 A 
ATOM     10  C   LIG    1       -3.936 -12.536 -17.847  0.00  0.00    -0.066 A 
ATOM     11  C   LIG    1       -4.532 -11.702 -16.911  0.00  0.00    +0.160 A 
ATOM     12  C   LIG    1       -4.780 -10.364 -17.219  0.00  0.00    +0.086 A 
ATOM     13  C   LIG    1       -4.434  -9.866 -18.458  0.00  0.00    +0.081 A 
ATOM     14  C   LIG    1       -3.832 -10.706 -19.404  0.00  0.00    -0.061 A 
BRANCH  10  15
ATOM     15  N   LIG    1       -3.676 -13.954 -17.514  0.00  0.00    +0.034 N 
ATOM     16  O   LIG    1       -3.399 -14.740 -18.390  0.00  0.00    -0.130 OA
ATOM     17  O   LIG    1       -3.739 -14.327 -16.366  0.00  0.00    -0.159 OA
ENDBRANCH  10  15
BRANCH  11  18
ATOM     18  O   LIG    1       -4.875 -12.191 -15.691  0.00  0.00    -0.460 OA
ATOM     19  H   LIG    1       -4.157 -12.171 -15.043  0.00  0.00    +0.406 HD
ENDBRANCH  11  18
BRANCH  12  20
ATOM     20  O   LIG    1       -5.365  -9.552 -16.299  0.00  0.00    -0.471 OA
ATOM     21  H   LIG    1       -6.074  -8.999 -16.657  0.00  0.00    +0.397 HD
ENDBRANCH  12  20
ENDBRANCH   1  14
BRANCH   6  22
ATOM     22  C   LIG    1        1.532  -7.105 -22.512  0.00  0.00    -0.061 A 
ATOM     23  C   LIG    1        2.190  -6.215 -23.370  0.00  0.00    +0.082 A 
ATOM     24  C   LIG    1        3.480  -5.814 -23.085  0.00  0.00    +0.086 A 
ATOM     25  C   LIG    1        4.124  -6.296 -21.945  0.00  0.00    +0.160 A 
ATOM     26  C   LIG    1        3.472  -7.176 -21.094  0.00  0.00    -0.066 A 
ATOM     27  C   LIG    1        2.183  -7.578 -21.367  0.00  0.00    +0.139 A 
BRANCH  26  28
ATOM     28  N   LIG    1        4.162  -7.683 -19.886  0.00  0.00    +0.034 N 
ATOM     29  O   LIG    1        4.122  -8.861 -19.617  0.00  0.00    -0.130 OA
ATOM     30  O   LIG    1        4.766  -6.919 -19.169  0.00  0.00    -0.159 OA
ENDBRANCH  26  28
BRANCH  24  31
ATOM     31  O   LIG    1        4.122  -4.951 -23.917  0.00  0.00    -0.471 OA
ATOM     32  H   LIG    1        4.590  -4.239 -23.459  0.00  0.00    +0.397 HD
ENDBRANCH  24  31
BRANCH  25  33
ATOM     33  O   LIG    1        5.393  -5.900 -21.668  0.00  0.00    -0.460 OA
ATOM     34  H   LIG    1        5.449  -5.063 -21.187  0.00  0.00    +0.406 HD
ENDBRANCH  25  33
ENDBRANCH   6  22
TORSDOF 8
ENDMDL
MODEL 8
REMARK VINA RESULT:      -7.4      9.249     12.707
REMARK  Name = CHEMBL265218
REMARK                            x       y       z     vdW  Elec       q    Type
REMARK                         _______ _______ _______ _____ _____    ______ ____
ROOT
ATOM      1  C   LIG    1        0.226  -7.588 -22.800  0.00  0.00    +0.136 C 
ATOM      2  C   LIG    1       -0.493  -8.274 -21.886  0.00  0.00    -0.186 C 
ATOM      3  C   LIG    1       -1.810  -8.865 -22.104  0.00  0.00    +0.422 C 
ATOM      4  C   LIG    1       -2.268  -9.527 -20.886  0.00  0.00    -0.187 C 
ATOM      5  C   LIG    1       -1.207  -9.363 -19.825  0.00  0.00    +0.100 C 
ATOM      6  C   LIG    1       -3.443 -10.176 -20.734  0.00  0.00    +0.136 C 
ATOM      7  O   LIG    1       -2.435  -8.814 -23.150  0.00  0.00    -0.433 OA
ATOM      8  C   LIG    1       -0.066  -8.564 -20.468  0.00  0.00    +0.100 C 
ENDROOT
BRANCH   1  14
ATOM      9  C   LIG    1        2.279  -7.731 -21.405  0.00  0.00    +0.139 A 
ATOM     10  C   LIG    1        3.567  -7.336 -21.117  0.00  0.00    -0.066 A 
ATOM     11  C   LIG    1        4.196  -6.381 -21.904  0.00  0.00    +0.160 A 
ATOM     12  C   LIG    1        3.526  -5.815 -22.990  0.00  0.00    +0.086 A 
ATOM     13  C   LIG    1        2.236  -6.204 -23.285  0.00  0.00    +0.081 A 
ATOM     14  C   LIG    1        1.600  -7.169 -22.492  0.00  0.00    -0.061 A 
BRANCH  10  15
ATOM     15  N   LIG    1        4.283  -7.932 -19.966  0.00  0.00    +0.034 N 
ATOM     16  O   LIG    1        4.828  -7.217 -19.159  0.00  0.00    -0.130 OA
ATOM     17  O   LIG    1        4.321  -9.133 -19.835  0.00  0.00    -0.159 OA
ENDBRANCH  10  15
BRANCH  11  18
ATOM     18  O   LIG    1        5.465  -5.995 -21.617  0.00  0.00    -0.460 OA
ATOM     19  H   LIG    1        6.118  -6.266 -22.277  0.00  0.00    +0.406 HD
ENDBRANCH  11  18
BRANCH  12  20
ATOM     20  O   LIG    1        4.146  -4.879 -23.758  0.00  0.00    -0.471 OA
ATOM     21  H   LIG    1        3.547  -4.386 -24.337  0.00  0.00    +0.397 HD
ENDBRANCH  12  20
ENDBRANCH   1  14
BRANCH   6  22
ATOM     22  C   LIG    1       -3.836 -10.684 -19.413  0.00  0.00    -0.061 A 
ATOM     23  C   LIG    1       -4.453  -9.833 -18.487  0.00  0.00    +0.082 A 
ATOM     24  C   LIG    1       -4.821 -10.317 -17.248  0.00  0.00    +0.086 A 
ATOM     25  C   LIG    1       -4.577 -11.651 -16.920  0.00  0.00    +0.160 A 
ATOM     26  C   LIG    1       -3.966 -12.495 -17.836  0.00  0.00    -0.066 A 
ATOM     27  C   LIG    1       -3.601 -12.023 -19.078  0.00  0.00    +0.139 A 
BRANCH  26  28
ATOM     28  N   LIG    1       -3.711 -13.910 -17.481  0.00  0.00    +0.034 N 
ATOM     29  O   LIG    1       -3.467 -14.716 -18.348  0.00  0.00    -0.130 OA
ATOM     30  O   LIG    1       -3.746 -14.258 -16.323  0.00  0.00    -0.159 OA
ENDBRANCH  26  28
BRANCH  24  31
ATOM     31  O   LIG    1       -5.419  -9.493 -16.347  0.00  0.00    -0.471 OA
ATOM     32  H   LIG    1       -5.812  -9.953 -15.593  0.00  0.00    +0.397 HD
ENDBRANCH  24  31
BRANCH  25  33
ATOM     33  O   LIG    1       -4.939 -12.124 -15.699  0.00  0.00    -0.460 OA
ATOM     34  H   LIG    1       -5.792 -12.581 -15.691  0.00  0.00    +0.406 HD
ENDBRANCH  25  33
ENDBRANCH   6  22
TORSDOF 8
ENDMDL
MODEL 9
REMARK VINA RESULT:      -7.2      9.952     13.047
REMARK  Name = CHEMBL265218
REMARK                            x       y       z     vdW  Elec       q    Type
REMARK                         _______ _______ _______ _____ _____    ______ ____
ROOT
ATOM      1  C   LIG    1        0.844  -8.009 -22.433  0.00  0.00    +0.136 C 
ATOM      2  C   LIG    1       -0.007  -8.607 -21.570  0.00  0.00    -0.186 C 
ATOM      3  C   LIG    1       -1.439  -8.802 -21.781  0.00  0.00    +0.422 C 
ATOM      4  C   LIG    1       -2.022  -9.486 -20.631  0.00  0.00    -0.187 C 
ATOM      5  C   LIG    1       -0.929  -9.751 -19.625  0.00  0.00    +0.100 C 
ATOM      6  C   LIG    1       -3.322  -9.825 -20.491  0.00  0.00    +0.136 C 
ATOM      7  O   LIG    1       -2.055  -8.446 -22.771  0.00  0.00    -0.433 OA
ATOM      8  C   LIG    1        0.365  -9.192 -20.230  0.00  0.00    +0.100 C 
ENDROOT
BRANCH   1  14
ATOM      9  C   LIG    1        3.156  -8.755 -22.959  0.00  0.00    +0.139 A 
ATOM     10  C   LIG    1        4.509  -8.750 -22.699  0.00  0.00    -0.066 A 
ATOM     11  C   LIG    1        5.015  -8.001 -21.645  0.00  0.00    +0.160 A 
ATOM     12  C   LIG    1        4.155  -7.250 -20.842  0.00  0.00    +0.086 A 
ATOM     13  C   LIG    1        2.798  -7.250 -21.094  0.00  0.00    +0.081 A 
ATOM     14  C   LIG    1        2.287  -8.005 -22.158  0.00  0.00    -0.061 A 
BRANCH  10  15
ATOM     15  N   LIG    1        5.427  -9.545 -23.547  0.00  0.00    +0.034 N 
ATOM     16  O   LIG    1        5.436  -9.382 -24.745  0.00  0.00    -0.130 OA
ATOM     17  O   LIG    1        6.167 -10.356 -23.041  0.00  0.00    -0.159 OA
ENDBRANCH  10  15
BRANCH  11  18
ATOM     18  O   LIG    1        6.349  -8.000 -21.394  0.00  0.00    -0.460 OA
ATOM     19  H   LIG    1        6.574  -7.898 -20.459  0.00  0.00    +0.406 HD
ENDBRANCH  11  18
BRANCH  12  20
ATOM     20  O   LIG    1        4.655  -6.519 -19.810  0.00  0.00    -0.471 OA
ATOM     21  H   LIG    1        4.218  -5.665 -19.686  0.00  0.00    +0.397 HD
ENDBRANCH  12  20
ENDBRANCH   1  14
BRANCH   6  22
ATOM     22  C   LIG    1       -3.801 -10.394 -19.223  0.00  0.00    -0.061 A 
ATOM     23  C   LIG    1       -4.484  -9.587 -18.304  0.00  0.00    +0.082 A 
ATOM     24  C   LIG    1       -4.932 -10.128 -17.116  0.00  0.00    +0.086 A 
ATOM     25  C   LIG    1       -4.703 -11.474 -16.832  0.00  0.00    +0.160 A 
ATOM     26  C   LIG    1       -4.027 -12.275 -17.741  0.00  0.00    -0.066 A 
ATOM     27  C   LIG    1       -3.581 -11.745 -18.933  0.00  0.00    +0.139 A 
BRANCH  26  28
ATOM     28  N   LIG    1       -3.787 -13.703 -17.433  0.00  0.00    +0.034 N 
ATOM     29  O   LIG    1       -3.639 -14.498 -18.332  0.00  0.00    -0.130 OA
ATOM     30  O   LIG    1       -3.739 -14.074 -16.283  0.00  0.00    -0.159 OA
ENDBRANCH  26  28
BRANCH  24  31
ATOM     31  O   LIG    1       -5.595  -9.347 -16.222  0.00  0.00    -0.471 OA
ATOM     32  H   LIG    1       -5.096  -9.163 -15.414  0.00  0.00    +0.397 HD
ENDBRANCH  24  31
BRANCH  25  33
ATOM     33  O   LIG    1       -5.144 -12.003 -15.661  0.00  0.00    -0.460 OA
ATOM     34  H   LIG    1       -5.982 -11.633 -15.353  0.00  0.00    +0.406 HD
ENDBRANCH  25  33
ENDBRANCH   6  22
TORSDOF 8
ENDMDL
