MODEL 1
REMARK VINA RESULT:      -6.6      0.000      0.000
REMARK  Name = CHEMBL1089538
REMARK                            x       y       z     vdW  Elec       q    Type
REMARK                         _______ _______ _______ _____ _____    ______ ____
ROOT
ATOM      1  C   LIG    1        5.983  -7.493 -19.028  0.00  0.00    -0.267 A 
ATOM      2  C   LIG    1        6.622  -6.472 -19.666  0.00  0.00    +0.099 A 
ATOM      3 CL   LIG    1        6.979  -6.593 -21.360  0.00  0.00    -0.034 Cl
ATOM      4  C   LIG    1        6.991  -5.320 -18.948  0.00  0.00    -0.216 A 
ATOM      5  C   LIG    1        7.656  -4.162 -19.432  0.00  0.00    +0.109 A 
ATOM      6  C   LIG    1        7.944  -3.125 -18.601  0.00  0.00    +0.018 A 
ATOM      7  C   LIG    1        7.596  -3.158 -17.246  0.00  0.00    +0.331 A 
ATOM      8  O   LIG    1        7.895  -2.109 -16.434  0.00  0.00    -0.621 OA
ATOM      9  C   LIG    1        6.946  -4.270 -16.739  0.00  0.00    -0.165 A 
ATOM     10  C   LIG    1        6.651  -5.325 -17.574  0.00  0.00    +0.011 A 
ATOM     11  S   LIG    1        5.848  -6.893 -17.352  0.00  0.00    +0.115 S 
ENDROOT
BRANCH   9  12
ATOM     12  N   LIG    1        6.571  -4.326 -15.308  0.00  0.00    +0.062 N 
ATOM     13  O   LIG    1        5.836  -3.485 -14.842  0.00  0.00    -0.160 OA
ATOM     14  O   LIG    1        7.000  -5.211 -14.604  0.00  0.00    -0.161 OA
ENDBRANCH   9  12
BRANCH   1  15
ATOM     15  C   LIG    1        5.517  -8.767 -19.582  0.00  0.00    +0.560 C 
ATOM     16  O   LIG    1        6.323  -9.618 -19.907  0.00  0.00    -0.473 OA
BRANCH  15  17
ATOM     17  O   LIG    1        4.197  -8.994 -19.732  0.00  0.00    -0.346 OA
BRANCH  17  18
ATOM     18  C   LIG    1        3.505  -8.191 -20.690  0.00  0.00    +0.391 C 
ATOM     19  C   LIG    1        3.868  -8.654 -22.102  0.00  0.00    +0.082 C 
BRANCH  18  20
ATOM     20  O   LIG    1        2.096  -8.324 -20.493  0.00  0.00    -0.349 OA
BRANCH  20  21
ATOM     21  C   LIG    1        1.332  -7.267 -20.813  0.00  0.00    +0.461 C 
ATOM     22  O   LIG    1        1.797  -6.152 -20.772  0.00  0.00    -0.489 OA
BRANCH  21  24
ATOM     23  C   LIG    1       -0.162  -7.859 -22.700  0.00  0.00    +0.062 C 
ATOM     24  C   LIG    1       -0.104  -7.470 -21.222  0.00  0.00    +0.023 C 
ATOM     25  C   LIG    1       -0.721  -8.585 -20.376  0.00  0.00    +0.058 C 
ENDBRANCH  21  24
ENDBRANCH  20  21
ENDBRANCH  18  20
ENDBRANCH  17  18
ENDBRANCH  15  17
ENDBRANCH   1  15
BRANCH   6  26
ATOM     26  O   LIG    1        8.583  -2.031 -19.096  0.00  0.00    -0.478 OA
ATOM     27  H   LIG    1        8.482  -1.237 -18.553  0.00  0.00    +0.378 HD
ENDBRANCH   6  26
TORSDOF 8
ENDMDL
MODEL 2
REMARK VINA RESULT:      -6.1     10.583     13.059
REMARK  Name = CHEMBL1089538
REMARK                            x       y       z     vdW  Elec       q    Type
REMARK                         _______ _______ _______ _____ _____    ______ ____
ROOT
ATOM      1  C   LIG    1       -2.564 -14.983 -20.915  0.00  0.00    -0.267 A 
ATOM      2  C   LIG    1       -3.053 -15.048 -19.644  0.00  0.00    +0.099 A 
ATOM      3 CL   LIG    1       -3.215 -16.583 -18.852  0.00  0.00    -0.034 Cl
ATOM      4  C   LIG    1       -3.426 -13.867 -18.977  0.00  0.00    -0.216 A 
ATOM      5  C   LIG    1       -3.951 -13.731 -17.664  0.00  0.00    +0.109 A 
ATOM      6  C   LIG    1       -4.264 -12.507 -17.162  0.00  0.00    +0.018 A 
ATOM      7  C   LIG    1       -4.082 -11.342 -17.915  0.00  0.00    +0.331 A 
ATOM      8  O   LIG    1       -4.403 -10.129 -17.392  0.00  0.00    -0.621 OA
ATOM      9  C   LIG    1       -3.572 -11.435 -19.199  0.00  0.00    -0.165 A 
ATOM     10  C   LIG    1       -3.252 -12.672 -19.715  0.00  0.00    +0.011 A 
ATOM     11  S   LIG    1       -2.588 -13.233 -21.262  0.00  0.00    +0.115 S 
ENDROOT
BRANCH   9  12
ATOM     12  N   LIG    1       -3.373 -10.214 -20.012  0.00  0.00    +0.062 N 
ATOM     13  O   LIG    1       -4.075 -10.007 -20.974  0.00  0.00    -0.160 OA
ATOM     14  O   LIG    1       -2.506  -9.424 -19.714  0.00  0.00    -0.161 OA
ENDBRANCH   9  12
BRANCH   1  15
ATOM     15  C   LIG    1       -2.123 -16.080 -21.780  0.00  0.00    +0.560 C 
ATOM     16  O   LIG    1       -1.060 -16.632 -21.567  0.00  0.00    -0.473 OA
BRANCH  15  17
ATOM     17  O   LIG    1       -2.893 -16.476 -22.813  0.00  0.00    -0.346 OA
BRANCH  17  18
ATOM     18  C   LIG    1       -4.283 -16.675 -22.546  0.00  0.00    +0.391 C 
ATOM     19  C   LIG    1       -5.104 -15.634 -23.311  0.00  0.00    +0.082 C 
BRANCH  18  20
ATOM     20  O   LIG    1       -4.666 -17.985 -22.968  0.00  0.00    -0.349 OA
BRANCH  20  21
ATOM     21  C   LIG    1       -5.273 -18.766 -22.060  0.00  0.00    +0.461 C 
ATOM     22  O   LIG    1       -6.389 -19.179 -22.268  0.00  0.00    -0.489 OA
BRANCH  21  24
ATOM     23  C   LIG    1       -5.341 -20.227 -20.058  0.00  0.00    +0.062 C 
ATOM     24  C   LIG    1       -4.563 -19.126 -20.780  0.00  0.00    +0.023 C 
ATOM     25  C   LIG    1       -3.153 -19.625 -21.103  0.00  0.00    +0.058 C 
ENDBRANCH  21  24
ENDBRANCH  20  21
ENDBRANCH  18  20
ENDBRANCH  17  18
ENDBRANCH  15  17
ENDBRANCH   1  15
BRANCH   6  26
ATOM     26  O   LIG    1       -4.766 -12.412 -15.901  0.00  0.00    -0.478 OA
ATOM     27  H   LIG    1       -4.108 -12.552 -15.205  0.00  0.00    +0.378 HD
ENDBRANCH   6  26
TORSDOF 8
ENDMDL
MODEL 3
REMARK VINA RESULT:      -6.1     10.551     12.921
REMARK  Name = CHEMBL1089538
REMARK                            x       y       z     vdW  Elec       q    Type
REMARK                         _______ _______ _______ _____ _____    ______ ____
ROOT
ATOM      1  C   LIG    1       -2.506 -14.974 -20.779  0.00  0.00    -0.267 A 
ATOM      2  C   LIG    1       -3.039 -15.008 -19.524  0.00  0.00    +0.099 A 
ATOM      3 CL   LIG    1       -3.229 -16.524 -18.701  0.00  0.00    -0.034 Cl
ATOM      4  C   LIG    1       -3.433 -13.812 -18.899  0.00  0.00    -0.216 A 
ATOM      5  C   LIG    1       -4.003 -13.645 -17.609  0.00  0.00    +0.109 A 
ATOM      6  C   LIG    1       -4.333 -12.409 -17.147  0.00  0.00    +0.018 A 
ATOM      7  C   LIG    1       -4.124 -11.262 -17.920  0.00  0.00    +0.331 A 
ATOM      8  O   LIG    1       -4.462 -10.037 -17.438  0.00  0.00    -0.621 OA
ATOM      9  C   LIG    1       -3.571 -11.386 -19.183  0.00  0.00    -0.165 A 
ATOM     10  C   LIG    1       -3.234 -12.635 -19.658  0.00  0.00    +0.011 A 
ATOM     11  S   LIG    1       -2.517 -13.232 -21.168  0.00  0.00    +0.115 S 
ENDROOT
BRANCH   9  12
ATOM     12  N   LIG    1       -3.343 -10.185 -20.018  0.00  0.00    +0.062 N 
ATOM     13  O   LIG    1       -4.050  -9.970 -20.975  0.00  0.00    -0.160 OA
ATOM     14  O   LIG    1       -2.449  -9.418 -19.743  0.00  0.00    -0.161 OA
ENDBRANCH   9  12
BRANCH   1  15
ATOM     15  C   LIG    1       -2.036 -16.091 -21.602  0.00  0.00    +0.560 C 
ATOM     16  O   LIG    1       -2.547 -16.304 -22.685  0.00  0.00    -0.473 OA
BRANCH  15  17
ATOM     17  O   LIG    1       -1.038 -16.882 -21.158  0.00  0.00    -0.346 OA
BRANCH  17  18
ATOM     18  C   LIG    1       -1.176 -18.287 -21.381  0.00  0.00    +0.391 C 
ATOM     19  C   LIG    1        0.159 -18.981 -21.105  0.00  0.00    +0.082 C 
BRANCH  18  20
ATOM     20  O   LIG    1       -2.175 -18.811 -20.503  0.00  0.00    -0.349 OA
BRANCH  20  21
ATOM     21  C   LIG    1       -3.232 -19.414 -21.071  0.00  0.00    +0.461 C 
ATOM     22  O   LIG    1       -3.061 -20.263 -21.914  0.00  0.00    -0.489 OA
BRANCH  21  24
ATOM     23  C   LIG    1       -5.343 -18.363 -21.837  0.00  0.00    +0.062 C 
ATOM     24  C   LIG    1       -4.630 -19.031 -20.659  0.00  0.00    +0.023 C 
ATOM     25  C   LIG    1       -5.399 -20.285 -20.241  0.00  0.00    +0.058 C 
ENDBRANCH  21  24
ENDBRANCH  20  21
ENDBRANCH  18  20
ENDBRANCH  17  18
ENDBRANCH  15  17
ENDBRANCH   1  15
BRANCH   6  26
ATOM     26  O   LIG    1       -4.877 -12.284 -15.907  0.00  0.00    -0.478 OA
ATOM     27  H   LIG    1       -4.270 -11.923 -15.245  0.00  0.00    +0.378 HD
ENDBRANCH   6  26
TORSDOF 8
ENDMDL
MODEL 4
REMARK VINA RESULT:      -5.9      1.775      2.782
REMARK  Name = CHEMBL1089538
REMARK                            x       y       z     vdW  Elec       q    Type
REMARK                         _______ _______ _______ _____ _____    ______ ____
ROOT
ATOM      1  C   LIG    1        6.575  -7.191 -20.479  0.00  0.00    -0.267 A 
ATOM      2  C   LIG    1        6.411  -7.343 -19.135  0.00  0.00    +0.099 A 
ATOM      3 CL   LIG    1        5.850  -8.854 -18.492  0.00  0.00    -0.034 Cl
ATOM      4  C   LIG    1        6.697  -6.271 -18.270  0.00  0.00    -0.216 A 
ATOM      5  C   LIG    1        6.590  -6.236 -16.854  0.00  0.00    +0.109 A 
ATOM      6  C   LIG    1        6.908  -5.112 -16.158  0.00  0.00    +0.018 A 
ATOM      7  C   LIG    1        7.351  -3.954 -16.807  0.00  0.00    +0.331 A 
ATOM      8  O   LIG    1        7.662  -2.842 -16.090  0.00  0.00    -0.621 OA
ATOM      9  C   LIG    1        7.468  -3.951 -18.186  0.00  0.00    -0.165 A 
ATOM     10  C   LIG    1        7.148  -5.086 -18.898  0.00  0.00    +0.011 A 
ATOM     11  S   LIG    1        7.159  -5.510 -20.622  0.00  0.00    +0.115 S 
ENDROOT
BRANCH   9  12
ATOM     12  N   LIG    1        7.934  -2.736 -18.892  0.00  0.00    +0.062 N 
ATOM     13  O   LIG    1        9.104  -2.609 -19.171  0.00  0.00    -0.160 OA
ATOM     14  O   LIG    1        7.145  -1.868 -19.188  0.00  0.00    -0.161 OA
ENDBRANCH   9  12
BRANCH   1  15
ATOM     15  C   LIG    1        6.336  -8.168 -21.544  0.00  0.00    +0.560 C 
ATOM     16  O   LIG    1        7.189  -8.367 -22.389  0.00  0.00    -0.473 OA
BRANCH  15  17
ATOM     17  O   LIG    1        5.172  -8.845 -21.589  0.00  0.00    -0.346 OA
BRANCH  17  18
ATOM     18  C   LIG    1        3.991  -8.089 -21.862  0.00  0.00    +0.391 C 
ATOM     19  C   LIG    1        3.442  -8.476 -23.237  0.00  0.00    +0.082 C 
BRANCH  18  20
ATOM     20  O   LIG    1        3.007  -8.365 -20.862  0.00  0.00    -0.349 OA
BRANCH  20  21
ATOM     21  C   LIG    1        1.985  -7.501 -20.757  0.00  0.00    +0.461 C 
ATOM     22  O   LIG    1        2.203  -6.316 -20.661  0.00  0.00    -0.489 OA
BRANCH  21  24
ATOM     23  C   LIG    1       -0.204  -7.365 -21.913  0.00  0.00    +0.062 C 
ATOM     24  C   LIG    1        0.566  -8.008 -20.758  0.00  0.00    +0.023 C 
ATOM     25  C   LIG    1        0.569  -9.528 -20.930  0.00  0.00    +0.058 C 
ENDBRANCH  21  24
ENDBRANCH  20  21
ENDBRANCH  18  20
ENDBRANCH  17  18
ENDBRANCH  15  17
ENDBRANCH   1  15
BRANCH   6  26
ATOM     26  O   LIG    1        6.793  -5.111 -14.803  0.00  0.00    -0.478 OA
ATOM     27  H   LIG    1        6.045  -5.629 -14.471  0.00  0.00    +0.378 HD
ENDBRANCH   6  26
TORSDOF 8
ENDMDL
MODEL 5
REMARK VINA RESULT:      -5.7      6.834      9.689
REMARK  Name = CHEMBL1089538
REMARK                            x       y       z     vdW  Elec       q    Type
REMARK                         _______ _______ _______ _____ _____    ______ ____
ROOT
ATOM      1  C   LIG    1       -2.818  -9.606 -22.623  0.00  0.00    -0.267 A 
ATOM      2  C   LIG    1       -1.862  -9.194 -21.742  0.00  0.00    +0.099 A 
ATOM      3 CL   LIG    1       -1.645 -10.033 -20.239  0.00  0.00    -0.034 Cl
ATOM      4  C   LIG    1       -1.052  -8.088 -22.056  0.00  0.00    -0.216 A 
ATOM      5  C   LIG    1       -0.013  -7.514 -21.276  0.00  0.00    +0.109 A 
ATOM      6  C   LIG    1        0.682  -6.436 -21.726  0.00  0.00    +0.018 A 
ATOM      7  C   LIG    1        0.403  -5.854 -22.967  0.00  0.00    +0.331 A 
ATOM      8  O   LIG    1        1.111  -4.776 -23.395  0.00  0.00    -0.621 OA
ATOM      9  C   LIG    1       -0.603  -6.386 -23.755  0.00  0.00    -0.165 A 
ATOM     10  C   LIG    1       -1.312  -7.479 -23.307  0.00  0.00    +0.011 A 
ATOM     11  S   LIG    1       -2.636  -8.455 -23.975  0.00  0.00    +0.115 S 
ENDROOT
BRANCH   9  12
ATOM     12  N   LIG    1       -0.916  -5.784 -25.071  0.00  0.00    +0.062 N 
ATOM     13  O   LIG    1       -1.795  -4.960 -25.166  0.00  0.00    -0.160 OA
ATOM     14  O   LIG    1       -0.291  -6.119 -26.052  0.00  0.00    -0.161 OA
ENDBRANCH   9  12
BRANCH   1  15
ATOM     15  C   LIG    1       -3.759 -10.721 -22.494  0.00  0.00    +0.560 C 
ATOM     16  O   LIG    1       -4.950 -10.501 -22.379  0.00  0.00    -0.473 OA
BRANCH  15  17
ATOM     17  O   LIG    1       -3.305 -11.991 -22.501  0.00  0.00    -0.346 OA
BRANCH  17  18
ATOM     18  C   LIG    1       -4.017 -12.939 -21.703  0.00  0.00    +0.391 C 
ATOM     19  C   LIG    1       -4.148 -14.256 -22.471  0.00  0.00    +0.082 C 
BRANCH  18  20
ATOM     20  O   LIG    1       -3.304 -13.167 -20.485  0.00  0.00    -0.349 OA
BRANCH  20  21
ATOM     21  C   LIG    1       -3.915 -12.808 -19.345  0.00  0.00    +0.461 C 
ATOM     22  O   LIG    1       -4.286 -11.668 -19.191  0.00  0.00    -0.489 OA
BRANCH  21  24
ATOM     23  C   LIG    1       -3.119 -14.959 -18.403  0.00  0.00    +0.062 C 
ATOM     24  C   LIG    1       -4.136 -13.826 -18.256  0.00  0.00    +0.023 C 
ATOM     25  C   LIG    1       -3.963 -13.158 -16.891  0.00  0.00    +0.058 C 
ENDBRANCH  21  24
ENDBRANCH  20  21
ENDBRANCH  18  20
ENDBRANCH  17  18
ENDBRANCH  15  17
ENDBRANCH   1  15
BRANCH   6  26
ATOM     26  O   LIG    1        1.671  -5.910 -20.953  0.00  0.00    -0.478 OA
ATOM     27  H   LIG    1        2.185  -5.217 -21.391  0.00  0.00    +0.378 HD
ENDBRANCH   6  26
TORSDOF 8
ENDMDL
MODEL 6
REMARK VINA RESULT:      -5.5      6.207     10.126
REMARK  Name = CHEMBL1089538
REMARK                            x       y       z     vdW  Elec       q    Type
REMARK                         _______ _______ _______ _____ _____    ______ ____
ROOT
ATOM      1  C   LIG    1       -0.669 -10.169 -22.042  0.00  0.00    -0.267 A 
ATOM      2  C   LIG    1       -1.313  -9.579 -20.996  0.00  0.00    +0.099 A 
ATOM      3 CL   LIG    1       -1.016  -7.911 -20.620  0.00  0.00    -0.034 Cl
ATOM      4  C   LIG    1       -2.220 -10.325 -20.222  0.00  0.00    -0.216 A 
ATOM      5  C   LIG    1       -2.980  -9.892 -19.103  0.00  0.00    +0.109 A 
ATOM      6  C   LIG    1       -3.819 -10.746 -18.458  0.00  0.00    +0.018 A 
ATOM      7  C   LIG    1       -3.965 -12.075 -18.870  0.00  0.00    +0.331 A 
ATOM      8  O   LIG    1       -4.810 -12.910 -18.209  0.00  0.00    -0.621 OA
ATOM      9  C   LIG    1       -3.240 -12.533 -19.956  0.00  0.00    -0.165 A 
ATOM     10  C   LIG    1       -2.388 -11.674 -20.616  0.00  0.00    +0.011 A 
ATOM     11  S   LIG    1       -1.307 -11.835 -22.015  0.00  0.00    +0.115 S 
ENDROOT
BRANCH   9  12
ATOM     12  N   LIG    1       -3.379 -13.936 -20.407  0.00  0.00    +0.062 N 
ATOM     13  O   LIG    1       -2.708 -14.804 -19.898  0.00  0.00    -0.160 OA
ATOM     14  O   LIG    1       -4.163 -14.215 -21.284  0.00  0.00    -0.161 OA
ENDBRANCH   9  12
BRANCH   1  15
ATOM     15  C   LIG    1        0.304  -9.579 -22.965  0.00  0.00    +0.560 C 
ATOM     16  O   LIG    1       -0.080  -8.993 -23.960  0.00  0.00    -0.473 OA
BRANCH  15  17
ATOM     17  O   LIG    1        1.624  -9.686 -22.713  0.00  0.00    -0.346 OA
BRANCH  17  18
ATOM     18  C   LIG    1        2.121  -9.009 -21.557  0.00  0.00    +0.391 C 
ATOM     19  C   LIG    1        2.992  -9.965 -20.739  0.00  0.00    +0.082 C 
BRANCH  18  20
ATOM     20  O   LIG    1        2.902  -7.883 -21.964  0.00  0.00    -0.349 OA
BRANCH  20  21
ATOM     21  C   LIG    1        2.362  -6.667 -21.780  0.00  0.00    +0.461 C 
ATOM     22  O   LIG    1        2.163  -6.258 -20.661  0.00  0.00    -0.489 OA
BRANCH  21  24
ATOM     23  C   LIG    1        2.517  -6.481 -24.247  0.00  0.00    +0.062 C 
ATOM     24  C   LIG    1        2.005  -5.814 -22.970  0.00  0.00    +0.023 C 
ATOM     25  C   LIG    1        0.485  -5.661 -23.048  0.00  0.00    +0.058 C 
ENDBRANCH  21  24
ENDBRANCH  20  21
ENDBRANCH  18  20
ENDBRANCH  17  18
ENDBRANCH  15  17
ENDBRANCH   1  15
BRANCH   6  26
ATOM     26  O   LIG    1       -4.533 -10.299 -17.390  0.00  0.00    -0.478 OA
ATOM     27  H   LIG    1       -5.211  -9.646 -17.615  0.00  0.00    +0.378 HD
ENDBRANCH   6  26
TORSDOF 8
ENDMDL
MODEL 7
REMARK VINA RESULT:      -5.5     10.541     12.579
REMARK  Name = CHEMBL1089538
REMARK                            x       y       z     vdW  Elec       q    Type
REMARK                         _______ _______ _______ _____ _____    ______ ____
ROOT
ATOM      1  C   LIG    1       -2.463 -14.932 -21.047  0.00  0.00    -0.267 A 
ATOM      2  C   LIG    1       -2.971 -15.060 -19.789  0.00  0.00    +0.099 A 
ATOM      3 CL   LIG    1       -3.135 -16.632 -19.073  0.00  0.00    -0.034 Cl
ATOM      4  C   LIG    1       -3.360 -13.915 -19.072  0.00  0.00    -0.216 A 
ATOM      5  C   LIG    1       -3.906 -13.844 -17.762  0.00  0.00    +0.109 A 
ATOM      6  C   LIG    1       -4.234 -12.648 -17.207  0.00  0.00    +0.018 A 
ATOM      7  C   LIG    1       -4.048 -11.447 -17.900  0.00  0.00    +0.331 A 
ATOM      8  O   LIG    1       -4.384 -10.262 -17.324  0.00  0.00    -0.621 OA
ATOM      9  C   LIG    1       -3.518 -11.475 -19.179  0.00  0.00    -0.165 A 
ATOM     10  C   LIG    1       -3.183 -12.685 -19.749  0.00  0.00    +0.011 A 
ATOM     11  S   LIG    1       -2.492 -13.167 -21.311  0.00  0.00    +0.115 S 
ENDROOT
BRANCH   9  12
ATOM     12  N   LIG    1       -3.314 -10.216 -19.929  0.00  0.00    +0.062 N 
ATOM     13  O   LIG    1       -2.422  -9.462 -19.615  0.00  0.00    -0.160 OA
ATOM     14  O   LIG    1       -4.041  -9.940 -20.856  0.00  0.00    -0.161 OA
ENDBRANCH   9  12
BRANCH   1  15
ATOM     15  C   LIG    1       -2.002 -15.983 -21.957  0.00  0.00    +0.560 C 
ATOM     16  O   LIG    1       -0.841 -16.008 -22.319  0.00  0.00    -0.473 OA
BRANCH  15  17
ATOM     17  O   LIG    1       -2.865 -16.923 -22.395  0.00  0.00    -0.346 OA
BRANCH  17  18
ATOM     18  C   LIG    1       -3.697 -16.574 -23.502  0.00  0.00    +0.391 C 
ATOM     19  C   LIG    1       -3.707 -17.721 -24.515  0.00  0.00    +0.082 C 
BRANCH  18  20
ATOM     20  O   LIG    1       -5.028 -16.335 -23.040  0.00  0.00    -0.349 OA
BRANCH  20  21
ATOM     21  C   LIG    1       -5.659 -15.254 -23.528  0.00  0.00    +0.461 C 
ATOM     22  O   LIG    1       -5.247 -14.148 -23.272  0.00  0.00    -0.489 OA
BRANCH  21  24
ATOM     23  C   LIG    1       -7.445 -16.832 -24.211  0.00  0.00    +0.062 C 
ATOM     24  C   LIG    1       -6.881 -15.422 -24.394  0.00  0.00    +0.023 C 
ATOM     25  C   LIG    1       -7.938 -14.393 -23.988  0.00  0.00    +0.058 C 
ENDBRANCH  21  24
ENDBRANCH  20  21
ENDBRANCH  18  20
ENDBRANCH  17  18
ENDBRANCH  15  17
ENDBRANCH   1  15
BRANCH   6  26
ATOM     26  O   LIG    1       -4.755 -12.616 -15.951  0.00  0.00    -0.478 OA
ATOM     27  H   LIG    1       -4.096 -12.482 -15.255  0.00  0.00    +0.378 HD
ENDBRANCH   6  26
TORSDOF 8
ENDMDL
MODEL 8
REMARK VINA RESULT:      -5.5      6.747      9.530
REMARK  Name = CHEMBL1089538
REMARK                            x       y       z     vdW  Elec       q    Type
REMARK                         _______ _______ _______ _____ _____    ______ ____
ROOT
ATOM      1  C   LIG    1       -2.072 -10.242 -20.965  0.00  0.00    -0.267 A 
ATOM      2  C   LIG    1       -2.532  -9.524 -22.028  0.00  0.00    +0.099 A 
ATOM      3 CL   LIG    1       -4.055  -9.927 -22.756  0.00  0.00    -0.034 Cl
ATOM      4  C   LIG    1       -1.771  -8.454 -22.531  0.00  0.00    -0.216 A 
ATOM      5  C   LIG    1       -2.079  -7.595 -23.620  0.00  0.00    +0.109 A 
ATOM      6  C   LIG    1       -1.229  -6.599 -23.985  0.00  0.00    +0.018 A 
ATOM      7  C   LIG    1       -0.025  -6.383 -23.306  0.00  0.00    +0.331 A 
ATOM      8  O   LIG    1        0.809  -5.381 -23.690  0.00  0.00    -0.621 OA
ATOM      9  C   LIG    1        0.309  -7.200 -22.240  0.00  0.00    -0.165 A 
ATOM     10  C   LIG    1       -0.547  -8.211 -21.863  0.00  0.00    +0.011 A 
ATOM     11  S   LIG    1       -0.518  -9.449 -20.591  0.00  0.00    +0.115 S 
ENDROOT
BRANCH   9  12
ATOM     12  N   LIG    1        1.579  -6.988 -21.509  0.00  0.00    +0.062 N 
ATOM     13  O   LIG    1        2.556  -7.641 -21.792  0.00  0.00    -0.160 OA
ATOM     14  O   LIG    1        1.639  -6.161 -20.627  0.00  0.00    -0.161 OA
ENDBRANCH   9  12
BRANCH   1  15
ATOM     15  C   LIG    1       -2.700 -11.382 -20.292  0.00  0.00    +0.560 C 
ATOM     16  O   LIG    1       -3.114 -11.263 -19.155  0.00  0.00    -0.473 OA
BRANCH  15  17
ATOM     17  O   LIG    1       -2.817 -12.562 -20.933  0.00  0.00    -0.346 OA
BRANCH  17  18
ATOM     18  C   LIG    1       -3.945 -13.374 -20.598  0.00  0.00    +0.391 C 
ATOM     19  C   LIG    1       -5.005 -13.253 -21.695  0.00  0.00    +0.082 C 
BRANCH  18  20
ATOM     20  O   LIG    1       -3.532 -14.737 -20.483  0.00  0.00    -0.349 OA
BRANCH  20  21
ATOM     21  C   LIG    1       -2.887 -15.086 -19.358  0.00  0.00    +0.461 C 
ATOM     22  O   LIG    1       -3.245 -14.641 -18.293  0.00  0.00    -0.489 OA
BRANCH  21  24
ATOM     23  C   LIG    1       -2.196 -17.404 -19.904  0.00  0.00    +0.062 C 
ATOM     24  C   LIG    1       -1.716 -16.033 -19.424  0.00  0.00    +0.023 C 
ATOM     25  C   LIG    1       -0.673 -15.486 -20.400  0.00  0.00    +0.058 C 
ENDBRANCH  21  24
ENDBRANCH  20  21
ENDBRANCH  18  20
ENDBRANCH  17  18
ENDBRANCH  15  17
ENDBRANCH   1  15
BRANCH   6  26
ATOM     26  O   LIG    1       -1.555  -5.796 -25.034  0.00  0.00    -0.478 OA
ATOM     27  H   LIG    1       -0.941  -5.060 -25.171  0.00  0.00    +0.378 HD
ENDBRANCH   6  26
TORSDOF 8
ENDMDL
MODEL 9
REMARK VINA RESULT:      -5.4      7.989     11.429
REMARK  Name = CHEMBL1089538
REMARK                            x       y       z     vdW  Elec       q    Type
REMARK                         _______ _______ _______ _____ _____    ______ ____
ROOT
ATOM      1  C   LIG    1       -3.137 -12.438 -22.594  0.00  0.00    -0.267 A 
ATOM      2  C   LIG    1       -3.602 -11.660 -21.577  0.00  0.00    +0.099 A 
ATOM      3 CL   LIG    1       -4.116 -10.032 -21.891  0.00  0.00    -0.034 Cl
ATOM      4  C   LIG    1       -3.666 -12.180 -20.272  0.00  0.00    -0.216 A 
ATOM      5  C   LIG    1       -4.116 -11.530 -19.091  0.00  0.00    +0.109 A 
ATOM      6  C   LIG    1       -4.114 -12.177 -17.895  0.00  0.00    +0.018 A 
ATOM      7  C   LIG    1       -3.670 -13.500 -17.783  0.00  0.00    +0.331 A 
ATOM      8  O   LIG    1       -3.677 -14.126 -16.576  0.00  0.00    -0.621 OA
ATOM      9  C   LIG    1       -3.224 -14.165 -18.912  0.00  0.00    -0.165 A 
ATOM     10  C   LIG    1       -3.223 -13.516 -20.127  0.00  0.00    +0.011 A 
ATOM     11  S   LIG    1       -2.758 -13.978 -21.777  0.00  0.00    +0.115 S 
ENDROOT
BRANCH   9  12
ATOM     12  N   LIG    1       -2.749 -15.564 -18.813  0.00  0.00    +0.062 N 
ATOM     13  O   LIG    1       -1.635 -15.797 -18.407  0.00  0.00    -0.160 OA
ATOM     14  O   LIG    1       -3.477 -16.473 -19.141  0.00  0.00    -0.161 OA
ENDBRANCH   9  12
BRANCH   1  15
ATOM     15  C   LIG    1       -2.989 -12.096 -24.011  0.00  0.00    +0.560 C 
ATOM     16  O   LIG    1       -3.955 -12.138 -24.750  0.00  0.00    -0.473 OA
BRANCH  15  17
ATOM     17  O   LIG    1       -1.784 -11.737 -24.496  0.00  0.00    -0.346 OA
BRANCH  17  18
ATOM     18  C   LIG    1       -0.847 -11.191 -23.566  0.00  0.00    +0.391 C 
ATOM     19  C   LIG    1        0.576 -11.428 -24.075  0.00  0.00    +0.082 C 
BRANCH  18  20
ATOM     20  O   LIG    1       -1.075  -9.786 -23.429  0.00  0.00    -0.349 OA
BRANCH  20  21
ATOM     21  C   LIG    1       -0.345  -9.136 -22.509  0.00  0.00    +0.461 C 
ATOM     22  O   LIG    1        0.277  -8.147 -22.820  0.00  0.00    -0.489 OA
BRANCH  21  24
ATOM     23  C   LIG    1        1.137  -9.582 -20.573  0.00  0.00    +0.062 C 
ATOM     24  C   LIG    1       -0.301  -9.639 -21.089  0.00  0.00    +0.023 C 
ATOM     25  C   LIG    1       -1.194  -8.760 -20.210  0.00  0.00    +0.058 C 
ENDBRANCH  21  24
ENDBRANCH  20  21
ENDBRANCH  18  20
ENDBRANCH  17  18
ENDBRANCH  15  17
ENDBRANCH   1  15
BRANCH   6  26
ATOM     26  O   LIG    1       -4.551 -11.526 -16.784  0.00  0.00    -0.478 OA
ATOM     27  H   LIG    1       -5.451 -11.178 -16.861  0.00  0.00    +0.378 HD
ENDBRANCH   6  26
TORSDOF 8
ENDMDL
