MODEL 1
REMARK VINA RESULT:      -7.6      0.000      0.000
REMARK  Name = CHEMBL1324
REMARK                            x       y       z     vdW  Elec       q    Type
REMARK                         _______ _______ _______ _____ _____    ______ ____
ROOT
ATOM      1  C   LIG    1       -3.527 -11.439 -19.182  0.00  0.00    -0.277 A 
ATOM      2  C   LIG    1       -4.194 -10.281 -18.769  0.00  0.00    +0.168 A 
ATOM      3  C   LIG    1       -4.862 -10.264 -17.564  0.00  0.00    -0.200 A 
ATOM      4  C   LIG    1       -4.876 -11.395 -16.758  0.00  0.00    +0.307 A 
ATOM      5  O   LIG    1       -5.537 -11.373 -15.572  0.00  0.00    -0.608 OA
ATOM      6  C   LIG    1       -4.213 -12.553 -17.165  0.00  0.00    -0.023 A 
ATOM      7  C   LIG    1       -3.547 -12.580 -18.373  0.00  0.00    +0.104 A 
ENDROOT
BRANCH   3   8
ATOM      8  N   LIG    1       -5.566  -9.038 -17.128  0.00  0.00    +0.071 N 
ATOM      9  O   LIG    1       -5.040  -7.958 -17.264  0.00  0.00    -0.155 OA
ATOM     10  O   LIG    1       -6.667  -9.115 -16.636  0.00  0.00    -0.251 OA
ENDBRANCH   3   8
BRANCH   1  11
ATOM     11  C   LIG    1       -2.812 -11.459 -20.471  0.00  0.00    +0.457 C 
ATOM     12  O   LIG    1       -2.789 -12.476 -21.138  0.00  0.00    -0.472 OA
BRANCH  11  17
ATOM     13  C   LIG    1       -0.133  -6.726 -22.352  0.00  0.00    +0.091 C 
ATOM     14  C   LIG    1       -0.835  -7.966 -21.859  0.00  0.00    -0.063 A 
ATOM     15  C   LIG    1       -0.477  -8.522 -20.644  0.00  0.00    -0.012 A 
ATOM     16  C   LIG    1       -1.115  -9.657 -20.187  0.00  0.00    +0.070 A 
ATOM     17  C   LIG    1       -2.124 -10.244 -20.954  0.00  0.00    -0.160 A 
ATOM     18  C   LIG    1       -2.480  -9.676 -22.180  0.00  0.00    +0.067 A 
ATOM     19  C   LIG    1       -1.837  -8.538 -22.622  0.00  0.00    -0.003 A 
ENDBRANCH  11  17
ENDBRANCH   1  11
BRANCH   6  20
ATOM     20  O   LIG    1       -4.229 -13.658 -16.372  0.00  0.00    -0.479 OA
ATOM     21  H   LIG    1       -4.033 -13.478 -15.442  0.00  0.00    +0.370 HD
ENDBRANCH   6  20
TORSDOF 4
ENDMDL
MODEL 2
REMARK VINA RESULT:      -7.1      4.556      6.834
REMARK  Name = CHEMBL1324
REMARK                            x       y       z     vdW  Elec       q    Type
REMARK                         _______ _______ _______ _____ _____    ______ ____
ROOT
ATOM      1  C   LIG    1       -3.008 -14.952 -19.593  0.00  0.00    -0.277 A 
ATOM      2  C   LIG    1       -2.990 -13.747 -20.303  0.00  0.00    +0.168 A 
ATOM      3  C   LIG    1       -3.348 -12.573 -19.676  0.00  0.00    -0.200 A 
ATOM      4  C   LIG    1       -3.726 -12.583 -18.340  0.00  0.00    +0.307 A 
ATOM      5  O   LIG    1       -4.078 -11.425 -17.726  0.00  0.00    -0.608 OA
ATOM      6  C   LIG    1       -3.746 -13.782 -17.626  0.00  0.00    -0.023 A 
ATOM      7  C   LIG    1       -3.395 -14.963 -18.249  0.00  0.00    +0.104 A 
ENDROOT
BRANCH   3   8
ATOM      8  N   LIG    1       -3.328 -11.299 -20.428  0.00  0.00    +0.071 N 
ATOM      9  O   LIG    1       -2.384 -10.551 -20.325  0.00  0.00    -0.155 OA
ATOM     10  O   LIG    1       -4.255 -11.005 -21.145  0.00  0.00    -0.251 OA
ENDBRANCH   3   8
BRANCH   1  11
ATOM     11  C   LIG    1       -2.626 -16.209 -20.263  0.00  0.00    +0.457 C 
ATOM     12  O   LIG    1       -1.454 -16.523 -20.343  0.00  0.00    -0.472 OA
BRANCH  11  17
ATOM     13  C   LIG    1       -6.679 -19.629 -22.498  0.00  0.00    +0.091 C 
ATOM     14  C   LIG    1       -5.617 -18.733 -21.912  0.00  0.00    -0.063 A 
ATOM     15  C   LIG    1       -4.976 -19.100 -20.743  0.00  0.00    -0.012 A 
ATOM     16  C   LIG    1       -4.003 -18.284 -20.201  0.00  0.00    +0.070 A 
ATOM     17  C   LIG    1       -3.667 -17.087 -20.837  0.00  0.00    -0.160 A 
ATOM     18  C   LIG    1       -4.318 -16.724 -22.018  0.00  0.00    +0.067 A 
ATOM     19  C   LIG    1       -5.285 -17.551 -22.551  0.00  0.00    -0.003 A 
ENDBRANCH  11  17
ENDBRANCH   1  11
BRANCH   6  20
ATOM     20  O   LIG    1       -4.117 -13.788 -16.318  0.00  0.00    -0.479 OA
ATOM     21  H   LIG    1       -3.770 -14.538 -15.814  0.00  0.00    +0.370 HD
ENDBRANCH   6  20
TORSDOF 4
ENDMDL
MODEL 3
REMARK VINA RESULT:      -7.1      2.288      3.605
REMARK  Name = CHEMBL1324
REMARK                            x       y       z     vdW  Elec       q    Type
REMARK                         _______ _______ _______ _____ _____    ______ ____
ROOT
ATOM      1  C   LIG    1       -3.827 -11.879 -19.685  0.00  0.00    -0.277 A 
ATOM      2  C   LIG    1       -3.327 -13.177 -19.835  0.00  0.00    +0.168 A 
ATOM      3  C   LIG    1       -3.324 -14.043 -18.764  0.00  0.00    -0.200 A 
ATOM      4  C   LIG    1       -3.816 -13.630 -17.532  0.00  0.00    +0.307 A 
ATOM      5  O   LIG    1       -3.811 -14.487 -16.479  0.00  0.00    -0.608 OA
ATOM      6  C   LIG    1       -4.317 -12.338 -17.376  0.00  0.00    -0.023 A 
ATOM      7  C   LIG    1       -4.318 -11.462 -18.443  0.00  0.00    +0.104 A 
ENDROOT
BRANCH   3   8
ATOM      8  N   LIG    1       -2.795 -15.415 -18.925  0.00  0.00    +0.071 N 
ATOM      9  O   LIG    1       -1.757 -15.729 -18.393  0.00  0.00    -0.155 OA
ATOM     10  O   LIG    1       -3.401 -16.223 -19.590  0.00  0.00    -0.251 OA
ENDBRANCH   3   8
BRANCH   1  11
ATOM     11  C   LIG    1       -3.831 -10.952 -20.831  0.00  0.00    +0.457 C 
ATOM     12  O   LIG    1       -4.728 -11.003 -21.651  0.00  0.00    -0.472 OA
BRANCH  11  17
ATOM     13  C   LIG    1        0.393  -7.089 -21.425  0.00  0.00    +0.091 C 
ATOM     14  C   LIG    1       -0.714  -8.101 -21.269  0.00  0.00    -0.063 A 
ATOM     15  C   LIG    1       -0.981  -8.643 -20.025  0.00  0.00    -0.012 A 
ATOM     16  C   LIG    1       -1.992  -9.570 -19.875  0.00  0.00    +0.070 A 
ATOM     17  C   LIG    1       -2.746  -9.960 -20.983  0.00  0.00    -0.160 A 
ATOM     18  C   LIG    1       -2.471  -9.408 -22.237  0.00  0.00    +0.067 A 
ATOM     19  C   LIG    1       -1.460  -8.479 -22.371  0.00  0.00    -0.003 A 
ENDBRANCH  11  17
ENDBRANCH   1  11
BRANCH   6  20
ATOM     20  O   LIG    1       -4.799 -11.937 -16.168  0.00  0.00    -0.479 OA
ATOM     21  H   LIG    1       -5.589 -11.381 -16.225  0.00  0.00    +0.370 HD
ENDBRANCH   6  20
TORSDOF 4
ENDMDL
MODEL 4
REMARK VINA RESULT:      -6.9      1.785      3.147
REMARK  Name = CHEMBL1324
REMARK                            x       y       z     vdW  Elec       q    Type
REMARK                         _______ _______ _______ _____ _____    ______ ____
ROOT
ATOM      1  C   LIG    1       -3.552 -10.543 -19.412  0.00  0.00    -0.277 A 
ATOM      2  C   LIG    1       -3.428 -11.880 -19.020  0.00  0.00    +0.168 A 
ATOM      3  C   LIG    1       -3.951 -12.297 -17.816  0.00  0.00    -0.200 A 
ATOM      4  C   LIG    1       -4.602 -11.391 -16.988  0.00  0.00    +0.307 A 
ATOM      5  O   LIG    1       -5.116 -11.806 -15.802  0.00  0.00    -0.608 OA
ATOM      6  C   LIG    1       -4.730 -10.056 -17.373  0.00  0.00    -0.023 A 
ATOM      7  C   LIG    1       -4.202  -9.630 -18.576  0.00  0.00    +0.104 A 
ENDROOT
BRANCH   3   8
ATOM      8  N   LIG    1       -3.819 -13.711 -17.404  0.00  0.00    +0.071 N 
ATOM      9  O   LIG    1       -3.775 -13.997 -16.230  0.00  0.00    -0.155 OA
ATOM     10  O   LIG    1       -3.756 -14.582 -18.240  0.00  0.00    -0.251 OA
ENDBRANCH   3   8
BRANCH   1  11
ATOM     11  C   LIG    1       -2.992 -10.096 -20.701  0.00  0.00    +0.457 C 
ATOM     12  O   LIG    1       -3.705 -10.034 -21.684  0.00  0.00    -0.472 OA
BRANCH  11  17
ATOM     13  C   LIG    1        2.564  -8.644 -21.079  0.00  0.00    +0.091 C 
ATOM     14  C   LIG    1        1.108  -9.024 -20.980  0.00  0.00    -0.063 A 
ATOM     15  C   LIG    1        0.188  -8.107 -20.504  0.00  0.00    -0.012 A 
ATOM     16  C   LIG    1       -1.145  -8.449 -20.410  0.00  0.00    +0.070 A 
ATOM     17  C   LIG    1       -1.565  -9.723 -20.798  0.00  0.00    -0.160 A 
ATOM     18  C   LIG    1       -0.631 -10.643 -21.278  0.00  0.00    +0.067 A 
ATOM     19  C   LIG    1        0.699 -10.286 -21.371  0.00  0.00    -0.003 A 
ENDBRANCH  11  17
ENDBRANCH   1  11
BRANCH   6  20
ATOM     20  O   LIG    1       -5.369  -9.173 -16.560  0.00  0.00    -0.479 OA
ATOM     21  H   LIG    1       -5.285  -9.374 -15.617  0.00  0.00    +0.370 HD
ENDBRANCH   6  20
TORSDOF 4
ENDMDL
MODEL 5
REMARK VINA RESULT:      -6.6      5.598      8.056
REMARK  Name = CHEMBL1324
REMARK                            x       y       z     vdW  Elec       q    Type
REMARK                         _______ _______ _______ _____ _____    ______ ____
ROOT
ATOM      1  C   LIG    1       -3.578 -16.627 -20.898  0.00  0.00    -0.277 A 
ATOM      2  C   LIG    1       -3.732 -17.911 -20.363  0.00  0.00    +0.168 A 
ATOM      3  C   LIG    1       -4.600 -18.803 -20.952  0.00  0.00    -0.200 A 
ATOM      4  C   LIG    1       -5.324 -18.432 -22.078  0.00  0.00    +0.307 A 
ATOM      5  O   LIG    1       -6.179 -19.314 -22.655  0.00  0.00    -0.608 OA
ATOM      6  C   LIG    1       -5.175 -17.154 -22.617  0.00  0.00    -0.023 A 
ATOM      7  C   LIG    1       -4.311 -16.252 -22.028  0.00  0.00    +0.104 A 
ENDROOT
BRANCH   3   8
ATOM      8  N   LIG    1       -4.762 -20.160 -20.385  0.00  0.00    +0.071 N 
ATOM      9  O   LIG    1       -3.981 -21.035 -20.679  0.00  0.00    -0.155 OA
ATOM     10  O   LIG    1       -5.675 -20.394 -19.628  0.00  0.00    -0.251 OA
ENDBRANCH   3   8
BRANCH   1  11
ATOM     11  C   LIG    1       -2.649 -15.671 -20.268  0.00  0.00    +0.457 C 
ATOM     12  O   LIG    1       -1.452 -15.767 -20.464  0.00  0.00    -0.472 OA
BRANCH  11  17
ATOM     13  C   LIG    1       -4.683 -11.486 -16.882  0.00  0.00    +0.091 C 
ATOM     14  C   LIG    1       -4.150 -12.582 -17.770  0.00  0.00    -0.063 A 
ATOM     15  C   LIG    1       -3.934 -12.336 -19.113  0.00  0.00    -0.012 A 
ATOM     16  C   LIG    1       -3.447 -13.335 -19.931  0.00  0.00    +0.070 A 
ATOM     17  C   LIG    1       -3.171 -14.596 -19.399  0.00  0.00    -0.160 A 
ATOM     18  C   LIG    1       -3.391 -14.837 -18.040  0.00  0.00    +0.067 A 
ATOM     19  C   LIG    1       -3.874 -13.828 -17.234  0.00  0.00    -0.003 A 
ENDBRANCH  11  17
ENDBRANCH   1  11
BRANCH   6  20
ATOM     20  O   LIG    1       -5.884 -16.794 -23.720  0.00  0.00    -0.479 OA
ATOM     21  H   LIG    1       -6.114 -17.535 -24.299  0.00  0.00    +0.370 HD
ENDBRANCH   6  20
TORSDOF 4
ENDMDL
MODEL 6
REMARK VINA RESULT:      -6.4      8.487     10.016
REMARK  Name = CHEMBL1324
REMARK                            x       y       z     vdW  Elec       q    Type
REMARK                         _______ _______ _______ _____ _____    ______ ____
ROOT
ATOM      1  C   LIG    1      -10.018  -5.924 -24.151  0.00  0.00    -0.277 A 
ATOM      2  C   LIG    1       -9.205  -7.052 -24.306  0.00  0.00    +0.168 A 
ATOM      3  C   LIG    1       -9.727  -8.210 -24.838  0.00  0.00    -0.200 A 
ATOM      4  C   LIG    1      -11.062  -8.261 -25.222  0.00  0.00    +0.307 A 
ATOM      5  O   LIG    1      -11.572  -9.405 -25.745  0.00  0.00    -0.608 OA
ATOM      6  C   LIG    1      -11.878  -7.140 -25.069  0.00  0.00    -0.023 A 
ATOM      7  C   LIG    1      -11.363  -5.978 -24.531  0.00  0.00    +0.104 A 
ENDROOT
BRANCH   3   8
ATOM      8  N   LIG    1       -8.866  -9.401 -25.003  0.00  0.00    +0.071 N 
ATOM      9  O   LIG    1       -8.805 -10.229 -24.124  0.00  0.00    -0.155 OA
ATOM     10  O   LIG    1       -8.222  -9.548 -26.016  0.00  0.00    -0.251 OA
ENDBRANCH   3   8
BRANCH   1  11
ATOM     11  C   LIG    1       -9.460  -4.684 -23.581  0.00  0.00    +0.457 C 
ATOM     12  O   LIG    1       -9.328  -3.699 -24.281  0.00  0.00    -0.472 OA
BRANCH  11  17
ATOM     13  C   LIG    1       -7.907  -4.505 -18.042  0.00  0.00    +0.091 C 
ATOM     14  C   LIG    1       -8.313  -4.552 -19.494  0.00  0.00    -0.063 A 
ATOM     15  C   LIG    1       -7.644  -3.775 -20.421  0.00  0.00    -0.012 A 
ATOM     16  C   LIG    1       -8.011  -3.813 -21.751  0.00  0.00    +0.070 A 
ATOM     17  C   LIG    1       -9.061  -4.638 -22.159  0.00  0.00    -0.160 A 
ATOM     18  C   LIG    1       -9.732  -5.421 -21.216  0.00  0.00    +0.067 A 
ATOM     19  C   LIG    1       -9.351  -5.376 -19.891  0.00  0.00    -0.003 A 
ENDBRANCH  11  17
ENDBRANCH   1  11
BRANCH   6  20
ATOM     20  O   LIG    1      -13.183  -7.194 -25.446  0.00  0.00    -0.479 OA
ATOM     21  H   LIG    1      -13.355  -7.794 -26.186  0.00  0.00    +0.370 HD
ENDBRANCH   6  20
TORSDOF 4
ENDMDL
MODEL 7
REMARK VINA RESULT:      -6.3      9.553     11.638
REMARK  Name = CHEMBL1324
REMARK                            x       y       z     vdW  Elec       q    Type
REMARK                         _______ _______ _______ _____ _____    ______ ____
ROOT
ATOM      1  C   LIG    1        7.014  -6.197 -18.060  0.00  0.00    -0.277 A 
ATOM      2  C   LIG    1        7.436  -5.046 -18.735  0.00  0.00    +0.168 A 
ATOM      3  C   LIG    1        7.540  -3.850 -18.059  0.00  0.00    -0.200 A 
ATOM      4  C   LIG    1        7.226  -3.783 -16.707  0.00  0.00    +0.307 A 
ATOM      5  O   LIG    1        7.329  -2.603 -16.046  0.00  0.00    -0.608 OA
ATOM      6  C   LIG    1        6.805  -4.927 -16.029  0.00  0.00    -0.023 A 
ATOM      7  C   LIG    1        6.693  -6.128 -16.701  0.00  0.00    +0.104 A 
ENDROOT
BRANCH   3   8
ATOM      8  N   LIG    1        7.987  -2.635 -18.774  0.00  0.00    +0.071 N 
ATOM      9  O   LIG    1        7.183  -1.948 -19.359  0.00  0.00    -0.155 OA
ATOM     10  O   LIG    1        9.156  -2.328 -18.774  0.00  0.00    -0.251 OA
ENDBRANCH   3   8
BRANCH   1  11
ATOM     11  C   LIG    1        6.903  -7.477 -18.782  0.00  0.00    +0.457 C 
ATOM     12  O   LIG    1        7.891  -8.162 -18.961  0.00  0.00    -0.472 OA
BRANCH  11  17
ATOM     13  C   LIG    1        1.790  -9.238 -20.751  0.00  0.00    +0.091 C 
ATOM     14  C   LIG    1        3.129  -8.776 -20.235  0.00  0.00    -0.063 A 
ATOM     15  C   LIG    1        3.500  -7.451 -20.373  0.00  0.00    -0.012 A 
ATOM     16  C   LIG    1        4.725  -7.022 -19.904  0.00  0.00    +0.070 A 
ATOM     17  C   LIG    1        5.590  -7.929 -19.288  0.00  0.00    -0.160 A 
ATOM     18  C   LIG    1        5.207  -9.266 -19.151  0.00  0.00    +0.067 A 
ATOM     19  C   LIG    1        3.978  -9.680 -19.621  0.00  0.00    -0.003 A 
ENDBRANCH  11  17
ENDBRANCH   1  11
BRANCH   6  20
ATOM     20  O   LIG    1        6.500  -4.858 -14.705  0.00  0.00    -0.479 OA
ATOM     21  H   LIG    1        7.143  -4.362 -14.178  0.00  0.00    +0.370 HD
ENDBRANCH   6  20
TORSDOF 4
ENDMDL
MODEL 8
REMARK VINA RESULT:      -6.3      2.386      3.940
REMARK  Name = CHEMBL1324
REMARK                            x       y       z     vdW  Elec       q    Type
REMARK                         _______ _______ _______ _____ _____    ______ ____
ROOT
ATOM      1  C   LIG    1       -2.661 -10.586 -20.492  0.00  0.00    -0.277 A 
ATOM      2  C   LIG    1       -2.741 -11.921 -20.901  0.00  0.00    +0.168 A 
ATOM      3  C   LIG    1       -3.232 -12.877 -20.040  0.00  0.00    -0.200 A 
ATOM      4  C   LIG    1       -3.648 -12.519 -18.764  0.00  0.00    +0.307 A 
ATOM      5  O   LIG    1       -4.131 -13.465 -17.918  0.00  0.00    -0.608 OA
ATOM      6  C   LIG    1       -3.571 -11.189 -18.350  0.00  0.00    -0.023 A 
ATOM      7  C   LIG    1       -3.075 -10.226 -19.206  0.00  0.00    +0.104 A 
ENDROOT
BRANCH   3   8
ATOM      8  N   LIG    1       -3.316 -14.289 -20.475  0.00  0.00    +0.071 N 
ATOM      9  O   LIG    1       -2.603 -15.122 -19.966  0.00  0.00    -0.155 OA
ATOM     10  O   LIG    1       -4.098 -14.611 -21.339  0.00  0.00    -0.251 OA
ENDBRANCH   3   8
BRANCH   1  11
ATOM     11  C   LIG    1       -2.135  -9.562 -21.413  0.00  0.00    +0.457 C 
ATOM     12  O   LIG    1       -2.808  -9.188 -22.355  0.00  0.00    -0.472 OA
BRANCH  11  17
ATOM     13  C   LIG    1        3.099  -7.330 -20.553  0.00  0.00    +0.091 C 
ATOM     14  C   LIG    1        1.728  -7.914 -20.779  0.00  0.00    -0.063 A 
ATOM     15  C   LIG    1        0.697  -7.102 -21.217  0.00  0.00    -0.012 A 
ATOM     16  C   LIG    1       -0.560  -7.631 -21.425  0.00  0.00    +0.070 A 
ATOM     17  C   LIG    1       -0.791  -8.988 -21.192  0.00  0.00    -0.160 A 
ATOM     18  C   LIG    1        0.255  -9.802 -20.751  0.00  0.00    +0.067 A 
ATOM     19  C   LIG    1        1.508  -9.261 -20.551  0.00  0.00    -0.003 A 
ENDBRANCH  11  17
ENDBRANCH   1  11
BRANCH   6  20
ATOM     20  O   LIG    1       -3.981 -10.842 -17.100  0.00  0.00    -0.479 OA
ATOM     21  H   LIG    1       -4.779 -11.303 -16.805  0.00  0.00    +0.370 HD
ENDBRANCH   6  20
TORSDOF 4
ENDMDL
MODEL 9
REMARK VINA RESULT:      -6.1      4.663      7.198
REMARK  Name = CHEMBL1324
REMARK                            x       y       z     vdW  Elec       q    Type
REMARK                         _______ _______ _______ _____ _____    ______ ____
ROOT
ATOM      1  C   LIG    1       -2.931 -15.061 -20.047  0.00  0.00    -0.277 A 
ATOM      2  C   LIG    1       -3.392 -14.661 -18.788  0.00  0.00    +0.168 A 
ATOM      3  C   LIG    1       -3.632 -13.329 -18.535  0.00  0.00    -0.200 A 
ATOM      4  C   LIG    1       -3.418 -12.380 -19.526  0.00  0.00    +0.307 A 
ATOM      5  O   LIG    1       -3.655 -11.068 -19.271  0.00  0.00    -0.608 OA
ATOM      6  C   LIG    1       -2.958 -12.772 -20.783  0.00  0.00    -0.023 A 
ATOM      7  C   LIG    1       -2.709 -14.105 -21.043  0.00  0.00    +0.104 A 
ENDROOT
BRANCH   3   8
ATOM      8  N   LIG    1       -4.121 -12.907 -17.203  0.00  0.00    +0.071 N 
ATOM      9  O   LIG    1       -4.642 -11.826 -17.065  0.00  0.00    -0.155 OA
ATOM     10  O   LIG    1       -3.998 -13.644 -16.252  0.00  0.00    -0.251 OA
ENDBRANCH   3   8
BRANCH   1  11
ATOM     11  C   LIG    1       -2.673 -16.487 -20.320  0.00  0.00    +0.457 C 
ATOM     12  O   LIG    1       -1.575 -16.960 -20.095  0.00  0.00    -0.472 OA
BRANCH  11  17
ATOM     13  C   LIG    1       -6.859 -19.816 -22.445  0.00  0.00    +0.091 C 
ATOM     14  C   LIG    1       -5.762 -18.944 -21.888  0.00  0.00    -0.063 A 
ATOM     15  C   LIG    1       -5.104 -19.321 -20.731  0.00  0.00    -0.012 A 
ATOM     16  C   LIG    1       -4.099 -18.527 -20.216  0.00  0.00    +0.070 A 
ATOM     17  C   LIG    1       -3.747 -17.342 -20.865  0.00  0.00    -0.160 A 
ATOM     18  C   LIG    1       -4.416 -16.969 -22.034  0.00  0.00    +0.067 A 
ATOM     19  C   LIG    1       -5.415 -17.774 -22.540  0.00  0.00    -0.003 A 
ENDBRANCH  11  17
ENDBRANCH   1  11
BRANCH   6  20
ATOM     20  O   LIG    1       -2.750 -11.841 -21.752  0.00  0.00    -0.479 OA
ATOM     21  H   LIG    1       -3.418 -11.141 -21.775  0.00  0.00    +0.370 HD
ENDBRANCH   6  20
TORSDOF 4
ENDMDL
