MODEL 1
REMARK VINA RESULT:      -6.0      0.000      0.000
REMARK  Name = CHEMBL1244
REMARK                            x       y       z     vdW  Elec       q    Type
REMARK                         _______ _______ _______ _____ _____    ______ ____
ROOT
ATOM      1  C   LIG    1       -4.165 -10.575 -18.765  0.00  0.00    +0.171 A 
ATOM      2  C   LIG    1       -3.553 -11.759 -19.196  0.00  0.00    -0.183 A 
ATOM      3  C   LIG    1       -3.589 -12.898 -18.384  0.00  0.00    +0.138 A 
ATOM      4  C   LIG    1       -4.229 -12.850 -17.162  0.00  0.00    +0.073 A 
ATOM      5  C   LIG    1       -4.837 -11.668 -16.738  0.00  0.00    +0.183 A 
ATOM      6  C   LIG    1       -4.801 -10.537 -17.544  0.00  0.00    -0.080 A 
ENDROOT
BRANCH   6   7
ATOM      7  N   LIG    1       -5.448  -9.286 -17.088  0.00  0.00    +0.035 N 
ATOM      8  O   LIG    1       -6.507  -9.330 -16.508  0.00  0.00    -0.130 OA
ATOM      9  O   LIG    1       -4.916  -8.220 -17.295  0.00  0.00    -0.157 OA
ENDBRANCH   6   7
BRANCH   2  10
ATOM     10  C   LIG    1       -2.875 -11.803 -20.499  0.00  0.00    +0.512 C 
ATOM     11  O   LIG    1       -2.030 -10.977 -20.772  0.00  0.00    -0.442 OA
ENDBRANCH   2  10
BRANCH   4  12
ATOM     12  O   LIG    1       -4.267 -13.956 -16.370  0.00  0.00    -0.470 OA
ATOM     13  H   LIG    1       -5.140 -14.369 -16.313  0.00  0.00    +0.399 HD
ENDBRANCH   4  12
BRANCH   5  14
ATOM     14  O   LIG    1       -5.465 -11.624 -15.537  0.00  0.00    -0.459 OA
ATOM     15  H   LIG    1       -6.262 -11.075 -15.530  0.00  0.00    +0.409 HD
ENDBRANCH   5  14
TORSDOF 4
ENDMDL
MODEL 2
REMARK VINA RESULT:      -5.6      1.713      3.443
REMARK  Name = CHEMBL1244
REMARK                            x       y       z     vdW  Elec       q    Type
REMARK                         _______ _______ _______ _____ _____    ______ ____
ROOT
ATOM      1  C   LIG    1       -3.379 -11.637 -18.741  0.00  0.00    +0.171 A 
ATOM      2  C   LIG    1       -3.483 -10.275 -19.050  0.00  0.00    -0.183 A 
ATOM      3  C   LIG    1       -4.272  -9.438 -18.252  0.00  0.00    +0.138 A 
ATOM      4  C   LIG    1       -4.943  -9.960 -17.165  0.00  0.00    +0.073 A 
ATOM      5  C   LIG    1       -4.835 -11.317 -16.863  0.00  0.00    +0.183 A 
ATOM      6  C   LIG    1       -4.052 -12.148 -17.654  0.00  0.00    -0.080 A 
ENDROOT
BRANCH   6   7
ATOM      7  N   LIG    1       -3.942 -13.588 -17.328  0.00  0.00    +0.035 N 
ATOM      8  O   LIG    1       -3.891 -14.407 -18.215  0.00  0.00    -0.130 OA
ATOM      9  O   LIG    1       -3.903 -13.945 -16.173  0.00  0.00    -0.157 OA
ENDBRANCH   6   7
BRANCH   2  10
ATOM     10  C   LIG    1       -2.765  -9.727 -20.208  0.00  0.00    +0.512 C 
ATOM     11  O   LIG    1       -1.778  -9.041 -20.042  0.00  0.00    -0.442 OA
ENDBRANCH   2  10
BRANCH   4  12
ATOM     12  O   LIG    1       -5.710  -9.149 -16.387  0.00  0.00    -0.470 OA
ATOM     13  H   LIG    1       -6.642  -9.405 -16.352  0.00  0.00    +0.399 HD
ENDBRANCH   4  12
BRANCH   5  14
ATOM     14  O   LIG    1       -5.496 -11.827 -15.793  0.00  0.00    -0.459 OA
ATOM     15  H   LIG    1       -5.391 -12.783 -15.685  0.00  0.00    +0.409 HD
ENDBRANCH   5  14
TORSDOF 4
ENDMDL
MODEL 3
REMARK VINA RESULT:      -5.4      1.899      3.973
REMARK  Name = CHEMBL1244
REMARK                            x       y       z     vdW  Elec       q    Type
REMARK                         _______ _______ _______ _____ _____    ______ ____
ROOT
ATOM      1  C   LIG    1       -4.553 -10.011 -18.266  0.00  0.00    +0.171 A 
ATOM      2  C   LIG    1       -5.311  -9.234 -17.381  0.00  0.00    -0.183 A 
ATOM      3  C   LIG    1       -5.765  -9.790 -16.180  0.00  0.00    +0.138 A 
ATOM      4  C   LIG    1       -5.462 -11.100 -15.872  0.00  0.00    +0.073 A 
ATOM      5  C   LIG    1       -4.707 -11.869 -16.757  0.00  0.00    +0.183 A 
ATOM      6  C   LIG    1       -4.256 -11.318 -17.950  0.00  0.00    -0.080 A 
ENDROOT
BRANCH   6   7
ATOM      7  N   LIG    1       -3.454 -12.140 -18.885  0.00  0.00    +0.035 N 
ATOM      8  O   LIG    1       -2.739 -11.604 -19.699  0.00  0.00    -0.130 OA
ATOM      9  O   LIG    1       -3.514 -13.346 -18.833  0.00  0.00    -0.157 OA
ENDBRANCH   6   7
BRANCH   2  10
ATOM     10  C   LIG    1       -5.628  -7.839 -17.715  0.00  0.00    +0.512 C 
ATOM     11  O   LIG    1       -6.784  -7.489 -17.822  0.00  0.00    -0.442 OA
ENDBRANCH   2  10
BRANCH   4  12
ATOM     12  O   LIG    1       -5.902 -11.644 -14.704  0.00  0.00    -0.470 OA
ATOM     13  H   LIG    1       -5.237 -11.657 -14.002  0.00  0.00    +0.399 HD
ENDBRANCH   4  12
BRANCH   5  14
ATOM     14  O   LIG    1       -4.411 -13.158 -16.452  0.00  0.00    -0.459 OA
ATOM     15  H   LIG    1       -3.779 -13.570 -17.058  0.00  0.00    +0.409 HD
ENDBRANCH   5  14
TORSDOF 4
ENDMDL
MODEL 4
REMARK VINA RESULT:      -5.4      1.950      3.153
REMARK  Name = CHEMBL1244
REMARK                            x       y       z     vdW  Elec       q    Type
REMARK                         _______ _______ _______ _____ _____    ______ ____
ROOT
ATOM      1  C   LIG    1       -3.301 -12.875 -19.353  0.00  0.00    +0.171 A 
ATOM      2  C   LIG    1       -3.501 -13.950 -18.478  0.00  0.00    -0.183 A 
ATOM      3  C   LIG    1       -4.079 -13.730 -17.223  0.00  0.00    +0.138 A 
ATOM      4  C   LIG    1       -4.452 -12.454 -16.853  0.00  0.00    +0.073 A 
ATOM      5  C   LIG    1       -4.250 -11.387 -17.729  0.00  0.00    +0.183 A 
ATOM      6  C   LIG    1       -3.676 -11.604 -18.975  0.00  0.00    -0.080 A 
ENDROOT
BRANCH   6   7
ATOM      7  N   LIG    1       -3.465 -10.467 -19.899  0.00  0.00    +0.035 N 
ATOM      8  O   LIG    1       -2.774  -9.535 -19.563  0.00  0.00    -0.130 OA
ATOM      9  O   LIG    1       -3.985 -10.472 -20.991  0.00  0.00    -0.157 OA
ENDBRANCH   6   7
BRANCH   2  10
ATOM     10  C   LIG    1       -3.103 -15.307 -18.879  0.00  0.00    +0.512 C 
ATOM     11  O   LIG    1       -2.024 -15.747 -18.544  0.00  0.00    -0.442 OA
ENDBRANCH   2  10
BRANCH   4  12
ATOM     12  O   LIG    1       -5.015 -12.236 -15.634  0.00  0.00    -0.470 OA
ATOM     13  H   LIG    1       -5.191 -11.305 -15.443  0.00  0.00    +0.399 HD
ENDBRANCH   4  12
BRANCH   5  14
ATOM     14  O   LIG    1       -4.617 -10.133 -17.363  0.00  0.00    -0.459 OA
ATOM     15  H   LIG    1       -4.706 -10.012 -16.407  0.00  0.00    +0.409 HD
ENDBRANCH   5  14
TORSDOF 4
ENDMDL
MODEL 5
REMARK VINA RESULT:      -5.4      3.873      5.676
REMARK  Name = CHEMBL1244
REMARK                            x       y       z     vdW  Elec       q    Type
REMARK                         _______ _______ _______ _____ _____    ______ ____
ROOT
ATOM      1  C   LIG    1       -6.808  -7.192 -18.035  0.00  0.00    +0.171 A 
ATOM      2  C   LIG    1       -8.035  -6.601 -17.707  0.00  0.00    -0.183 A 
ATOM      3  C   LIG    1       -8.808  -7.130 -16.668  0.00  0.00    +0.138 A 
ATOM      4  C   LIG    1       -8.357  -8.232 -15.970  0.00  0.00    +0.073 A 
ATOM      5  C   LIG    1       -7.134  -8.816 -16.301  0.00  0.00    +0.183 A 
ATOM      6  C   LIG    1       -6.366  -8.291 -17.333  0.00  0.00    -0.080 A 
ENDROOT
BRANCH   6   7
ATOM      7  N   LIG    1       -5.069  -8.916 -17.678  0.00  0.00    +0.035 N 
ATOM      8  O   LIG    1       -4.958 -10.119 -17.673  0.00  0.00    -0.130 OA
ATOM      9  O   LIG    1       -4.122  -8.222 -17.966  0.00  0.00    -0.157 OA
ENDBRANCH   6   7
BRANCH   2  10
ATOM     10  C   LIG    1       -8.508  -5.427 -18.454  0.00  0.00    +0.512 C 
ATOM     11  O   LIG    1       -9.438  -5.533 -19.225  0.00  0.00    -0.442 OA
ENDBRANCH   2  10
BRANCH   4  12
ATOM     12  O   LIG    1       -9.106  -8.749 -14.958  0.00  0.00    -0.470 OA
ATOM     13  H   LIG    1       -9.101  -8.215 -14.153  0.00  0.00    +0.399 HD
ENDBRANCH   4  12
BRANCH   5  14
ATOM     14  O   LIG    1       -6.694  -9.899 -15.613  0.00  0.00    -0.459 OA
ATOM     15  H   LIG    1       -6.062  -9.689 -14.911  0.00  0.00    +0.409 HD
ENDBRANCH   5  14
TORSDOF 4
ENDMDL
MODEL 6
REMARK VINA RESULT:      -5.1      1.962      3.543
REMARK  Name = CHEMBL1244
REMARK                            x       y       z     vdW  Elec       q    Type
REMARK                         _______ _______ _______ _____ _____    ______ ____
ROOT
ATOM      1  C   LIG    1       -3.512 -12.158 -19.269  0.00  0.00    +0.171 A 
ATOM      2  C   LIG    1       -3.717 -10.782 -19.428  0.00  0.00    -0.183 A 
ATOM      3  C   LIG    1       -4.262 -10.032 -18.378  0.00  0.00    +0.138 A 
ATOM      4  C   LIG    1       -4.593 -10.654 -17.192  0.00  0.00    +0.073 A 
ATOM      5  C   LIG    1       -4.386 -12.025 -17.040  0.00  0.00    +0.183 A 
ATOM      6  C   LIG    1       -3.846 -12.769 -18.081  0.00  0.00    -0.080 A 
ENDROOT
BRANCH   6   7
ATOM      7  N   LIG    1       -3.629 -14.224 -17.913  0.00  0.00    +0.035 N 
ATOM      8  O   LIG    1       -4.202 -14.822 -17.033  0.00  0.00    -0.130 OA
ATOM      9  O   LIG    1       -2.878 -14.812 -18.655  0.00  0.00    -0.157 OA
ENDBRANCH   6   7
BRANCH   2  10
ATOM     10  C   LIG    1       -3.361 -10.126 -20.694  0.00  0.00    +0.512 C 
ATOM     11  O   LIG    1       -3.557 -10.694 -21.747  0.00  0.00    -0.442 OA
ENDBRANCH   2  10
BRANCH   4  12
ATOM     12  O   LIG    1       -5.123  -9.928 -16.169  0.00  0.00    -0.470 OA
ATOM     13  H   LIG    1       -5.110  -8.973 -16.318  0.00  0.00    +0.399 HD
ENDBRANCH   4  12
BRANCH   5  14
ATOM     14  O   LIG    1       -4.713 -12.633 -15.872  0.00  0.00    -0.459 OA
ATOM     15  H   LIG    1       -5.632 -12.497 -15.602  0.00  0.00    +0.409 HD
ENDBRANCH   5  14
TORSDOF 4
ENDMDL
MODEL 7
REMARK VINA RESULT:      -4.8      1.592      2.030
REMARK  Name = CHEMBL1244
REMARK                            x       y       z     vdW  Elec       q    Type
REMARK                         _______ _______ _______ _____ _____    ______ ____
ROOT
ATOM      1  C   LIG    1       -4.259 -11.522 -19.217  0.00  0.00    +0.171 A 
ATOM      2  C   LIG    1       -3.762 -12.375 -20.210  0.00  0.00    -0.183 A 
ATOM      3  C   LIG    1       -3.366 -13.676 -19.877  0.00  0.00    +0.138 A 
ATOM      4  C   LIG    1       -3.468 -14.111 -18.571  0.00  0.00    +0.073 A 
ATOM      5  C   LIG    1       -3.964 -13.256 -17.587  0.00  0.00    +0.183 A 
ATOM      6  C   LIG    1       -4.357 -11.965 -17.917  0.00  0.00    -0.080 A 
ENDROOT
BRANCH   6   7
ATOM      7  N   LIG    1       -4.883 -11.063 -16.867  0.00  0.00    +0.035 N 
ATOM      8  O   LIG    1       -5.524 -11.515 -15.948  0.00  0.00    -0.130 OA
ATOM      9  O   LIG    1       -4.669  -9.874 -16.930  0.00  0.00    -0.157 OA
ENDBRANCH   6   7
BRANCH   2  10
ATOM     10  C   LIG    1       -3.657 -11.905 -21.598  0.00  0.00    +0.512 C 
ATOM     11  O   LIG    1       -4.661 -11.656 -22.232  0.00  0.00    -0.442 OA
ENDBRANCH   2  10
BRANCH   4  12
ATOM     12  O   LIG    1       -3.085 -15.375 -18.244  0.00  0.00    -0.470 OA
ATOM     13  H   LIG    1       -2.942 -15.952 -19.007  0.00  0.00    +0.399 HD
ENDBRANCH   4  12
BRANCH   5  14
ATOM     14  O   LIG    1       -4.064 -13.687 -16.304  0.00  0.00    -0.459 OA
ATOM     15  H   LIG    1       -4.915 -13.488 -15.888  0.00  0.00    +0.409 HD
ENDBRANCH   5  14
TORSDOF 4
ENDMDL
MODEL 8
REMARK VINA RESULT:      -4.8     13.130     14.126
REMARK  Name = CHEMBL1244
REMARK                            x       y       z     vdW  Elec       q    Type
REMARK                         _______ _______ _______ _____ _____    ______ ____
ROOT
ATOM      1  C   LIG    1        7.443  -2.685 -16.879  0.00  0.00    +0.171 A 
ATOM      2  C   LIG    1        7.843  -2.361 -18.181  0.00  0.00    -0.183 A 
ATOM      3  C   LIG    1        7.810  -3.338 -19.183  0.00  0.00    +0.138 A 
ATOM      4  C   LIG    1        7.382  -4.615 -18.882  0.00  0.00    +0.073 A 
ATOM      5  C   LIG    1        6.985  -4.931 -17.583  0.00  0.00    +0.183 A 
ATOM      6  C   LIG    1        7.018  -3.962 -16.588  0.00  0.00    -0.080 A 
ENDROOT
BRANCH   6   7
ATOM      7  N   LIG    1        6.595  -4.304 -15.211  0.00  0.00    +0.035 N 
ATOM      8  O   LIG    1        5.865  -3.559 -14.601  0.00  0.00    -0.130 OA
ATOM      9  O   LIG    1        6.981  -5.328 -14.697  0.00  0.00    -0.157 OA
ENDBRANCH   6   7
BRANCH   2  10
ATOM     10  C   LIG    1        8.295  -0.999 -18.495  0.00  0.00    +0.512 C 
ATOM     11  O   LIG    1        7.541  -0.060 -18.350  0.00  0.00    -0.442 OA
ENDBRANCH   2  10
BRANCH   4  12
ATOM     12  O   LIG    1        7.348  -5.567 -19.854  0.00  0.00    -0.470 OA
ATOM     13  H   LIG    1        6.962  -5.265 -20.687  0.00  0.00    +0.399 HD
ENDBRANCH   4  12
BRANCH   5  14
ATOM     14  O   LIG    1        6.565  -6.187 -17.290  0.00  0.00    -0.459 OA
ATOM     15  H   LIG    1        5.764  -6.218 -16.748  0.00  0.00    +0.409 HD
ENDBRANCH   5  14
TORSDOF 4
ENDMDL
MODEL 9
REMARK VINA RESULT:      -4.8      1.805      3.936
REMARK  Name = CHEMBL1244
REMARK                            x       y       z     vdW  Elec       q    Type
REMARK                         _______ _______ _______ _____ _____    ______ ____
ROOT
ATOM      1  C   LIG    1       -4.268 -10.631 -18.904  0.00  0.00    +0.171 A 
ATOM      2  C   LIG    1       -4.742 -10.544 -17.589  0.00  0.00    -0.183 A 
ATOM      3  C   LIG    1       -4.686 -11.665 -16.753  0.00  0.00    +0.138 A 
ATOM      4  C   LIG    1       -4.161 -12.850 -17.228  0.00  0.00    +0.073 A 
ATOM      5  C   LIG    1       -3.690 -12.929 -18.539  0.00  0.00    +0.183 A 
ATOM      6  C   LIG    1       -3.746 -11.817 -19.370  0.00  0.00    -0.080 A 
ENDROOT
BRANCH   6   7
ATOM      7  N   LIG    1       -3.245 -11.908 -20.759  0.00  0.00    +0.035 N 
ATOM      8  O   LIG    1       -2.129 -12.320 -20.973  0.00  0.00    -0.130 OA
ATOM      9  O   LIG    1       -3.952 -11.571 -21.680  0.00  0.00    -0.157 OA
ENDBRANCH   6   7
BRANCH   2  10
ATOM     10  C   LIG    1       -5.298  -9.280 -17.090  0.00  0.00    +0.512 C 
ATOM     11  O   LIG    1       -4.879  -8.223 -17.513  0.00  0.00    -0.442 OA
ENDBRANCH   2  10
BRANCH   4  12
ATOM     12  O   LIG    1       -4.104 -13.942 -16.418  0.00  0.00    -0.470 OA
ATOM     13  H   LIG    1       -3.213 -14.299 -16.303  0.00  0.00    +0.399 HD
ENDBRANCH   4  12
BRANCH   5  14
ATOM     14  O   LIG    1       -3.175 -14.095 -19.003  0.00  0.00    -0.459 OA
ATOM     15  H   LIG    1       -2.946 -14.728 -18.308  0.00  0.00    +0.409 HD
ENDBRANCH   5  14
TORSDOF 4
ENDMDL
