MODEL 1
REMARK VINA RESULT:      -5.6      0.000      0.000
REMARK  Name = CHEMBL953
REMARK                            x       y       z     vdW  Elec       q    Type
REMARK                         _______ _______ _______ _____ _____    ______ ____
ROOT
ATOM      1  C   LIG    1       -3.451 -11.320 -19.173  0.00  0.00    -0.238 A 
ATOM      2  C   LIG    1       -4.142 -10.188 -18.716  0.00  0.00    +0.185 A 
ATOM      3  C   LIG    1       -4.844 -10.243 -17.534  0.00  0.00    -0.196 A 
ATOM      4  C   LIG    1       -4.870 -11.416 -16.789  0.00  0.00    +0.308 A 
ATOM      5  O   LIG    1       -5.564 -11.463 -15.624  0.00  0.00    -0.599 OA
ATOM      6  C   LIG    1       -4.184 -12.546 -17.236  0.00  0.00    -0.011 A 
ATOM      7  C   LIG    1       -3.483 -12.504 -18.423  0.00  0.00    +0.081 A 
ENDROOT
BRANCH   3   8
ATOM      8  N   LIG    1       -5.574  -9.048 -17.053  0.00  0.00    +0.068 N 
ATOM      9  O   LIG    1       -5.102  -7.947 -17.211  0.00  0.00    -0.153 OA
ATOM     10  O   LIG    1       -6.643  -9.175 -16.501  0.00  0.00    -0.245 OA
ENDBRANCH   3   8
BRANCH   1  12
ATOM     11  C   LIG    1       -3.209 -11.874 -21.559  0.00  0.00    -0.204 C 
ATOM     12  C   LIG    1       -2.703 -11.265 -20.430  0.00  0.00    +0.284 C 
BRANCH  11  14
ATOM     13  N   LIG    1       -2.475 -11.004 -23.720  0.00  0.00    -0.613 N 
ATOM     14  C   LIG    1       -2.389 -11.964 -22.777  0.00  0.00    +0.584 C 
ATOM     15  O   LIG    1       -1.631 -12.903 -22.933  0.00  0.00    -0.539 OA
BRANCH  13  17
ATOM     16  C   LIG    1       -2.753 -11.340 -26.126  0.00  0.00    +0.012 C 
ATOM     17  C   LIG    1       -1.752 -11.153 -24.985  0.00  0.00    +0.272 C 
ENDBRANCH  13  17
BRANCH  13  18
ATOM     18  C   LIG    1       -3.293  -9.813 -23.478  0.00  0.00    +0.260 C 
ATOM     19  C   LIG    1       -2.384  -8.589 -23.350  0.00  0.00    +0.015 C 
ENDBRANCH  13  18
ENDBRANCH  11  14
BRANCH  11  20
ATOM     20  C   LIG    1       -4.533 -12.421 -21.545  0.00  0.00    +0.276 C 
ATOM     21  N   LIG    1       -5.583 -12.854 -21.535  0.00  0.00    -0.440 NA
ENDBRANCH  11  20
ENDBRANCH   1  12
BRANCH   6  22
ATOM     22  O   LIG    1       -4.212 -13.691 -16.504  0.00  0.00    -0.479 OA
ATOM     23  H   LIG    1       -3.419 -13.837 -15.971  0.00  0.00    +0.372 HD
ENDBRANCH   6  22
TORSDOF 7
ENDMDL
MODEL 2
REMARK VINA RESULT:      -5.5      4.046      5.264
REMARK  Name = CHEMBL953
REMARK                            x       y       z     vdW  Elec       q    Type
REMARK                         _______ _______ _______ _____ _____    ______ ____
ROOT
ATOM      1  C   LIG    1       -3.406 -13.925 -18.352  0.00  0.00    -0.238 A 
ATOM      2  C   LIG    1       -3.122 -12.882 -19.247  0.00  0.00    +0.185 A 
ATOM      3  C   LIG    1       -3.515 -11.598 -18.952  0.00  0.00    -0.196 A 
ATOM      4  C   LIG    1       -4.192 -11.328 -17.768  0.00  0.00    +0.308 A 
ATOM      5  O   LIG    1       -4.577 -10.058 -17.483  0.00  0.00    -0.599 OA
ATOM      6  C   LIG    1       -4.478 -12.359 -16.873  0.00  0.00    -0.011 A 
ATOM      7  C   LIG    1       -4.094 -13.652 -17.162  0.00  0.00    +0.081 A 
ENDROOT
BRANCH   3   8
ATOM      8  N   LIG    1       -3.216 -10.498 -19.896  0.00  0.00    +0.068 N 
ATOM      9  O   LIG    1       -2.248  -9.796 -19.720  0.00  0.00    -0.153 OA
ATOM     10  O   LIG    1       -3.940 -10.304 -20.846  0.00  0.00    -0.245 OA
ENDBRANCH   3   8
BRANCH   1  12
ATOM     11  C   LIG    1       -3.258 -15.829 -19.906  0.00  0.00    -0.204 C 
ATOM     12  C   LIG    1       -2.989 -15.293 -18.664  0.00  0.00    +0.284 C 
BRANCH  11  14
ATOM     13  N   LIG    1       -1.732 -17.666 -20.413  0.00  0.00    -0.613 N 
ATOM     14  C   LIG    1       -2.990 -17.252 -20.167  0.00  0.00    +0.584 C 
ATOM     15  O   LIG    1       -3.905 -18.055 -20.159  0.00  0.00    -0.539 OA
BRANCH  13  17
ATOM     16  C   LIG    1       -0.817 -19.794 -19.626  0.00  0.00    +0.012 C 
ATOM     17  C   LIG    1       -1.481 -19.059 -20.792  0.00  0.00    +0.272 C 
ENDBRANCH  13  17
BRANCH  13  18
ATOM     18  C   LIG    1       -0.616 -16.724 -20.301  0.00  0.00    +0.260 C 
ATOM     19  C   LIG    1       -0.081 -16.400 -21.696  0.00  0.00    +0.015 C 
ENDBRANCH  13  18
ENDBRANCH  11  14
BRANCH  11  20
ATOM     20  C   LIG    1       -3.800 -15.000 -20.941  0.00  0.00    +0.276 C 
ATOM     21  N   LIG    1       -4.229 -14.342 -21.761  0.00  0.00    -0.440 NA
ENDBRANCH  11  20
ENDBRANCH   1  12
BRANCH   6  22
ATOM     22  O   LIG    1       -5.140 -12.090 -15.716  0.00  0.00    -0.479 OA
ATOM     23  H   LIG    1       -4.620 -12.253 -14.918  0.00  0.00    +0.372 HD
ENDBRANCH   6  22
TORSDOF 7
ENDMDL
MODEL 3
REMARK VINA RESULT:      -5.4      2.176      3.532
REMARK  Name = CHEMBL953
REMARK                            x       y       z     vdW  Elec       q    Type
REMARK                         _______ _______ _______ _____ _____    ______ ____
ROOT
ATOM      1  C   LIG    1       -3.263 -10.031 -19.041  0.00  0.00    -0.238 A 
ATOM      2  C   LIG    1       -3.169 -11.403 -18.763  0.00  0.00    +0.185 A 
ATOM      3  C   LIG    1       -3.924 -11.952 -17.753  0.00  0.00    -0.196 A 
ATOM      4  C   LIG    1       -4.781 -11.153 -17.005  0.00  0.00    +0.308 A 
ATOM      5  O   LIG    1       -5.523 -11.701 -16.010  0.00  0.00    -0.599 OA
ATOM      6  C   LIG    1       -4.880  -9.787 -17.276  0.00  0.00    -0.011 A 
ATOM      7  C   LIG    1       -4.123  -9.225 -18.283  0.00  0.00    +0.081 A 
ENDROOT
BRANCH   3   8
ATOM      8  N   LIG    1       -3.824 -13.400 -17.460  0.00  0.00    +0.068 N 
ATOM      9  O   LIG    1       -3.752 -13.782 -16.316  0.00  0.00    -0.153 OA
ATOM     10  O   LIG    1       -3.815 -14.200 -18.367  0.00  0.00    -0.245 OA
ENDBRANCH   3   8
BRANCH   1  12
ATOM     11  C   LIG    1       -2.715  -9.781 -21.428  0.00  0.00    -0.204 C 
ATOM     12  C   LIG    1       -2.461  -9.443 -20.115  0.00  0.00    +0.284 C 
BRANCH  11  14
ATOM     13  N   LIG    1       -0.591  -9.882 -22.628  0.00  0.00    -0.613 N 
ATOM     14  C   LIG    1       -1.810  -9.324 -22.494  0.00  0.00    +0.584 C 
ATOM     15  O   LIG    1       -2.163  -8.442 -23.255  0.00  0.00    -0.539 OA
BRANCH  13  17
ATOM     16  C   LIG    1        1.426  -8.522 -22.888  0.00  0.00    +0.012 C 
ATOM     17  C   LIG    1        0.356  -9.346 -23.609  0.00  0.00    +0.272 C 
ENDBRANCH  13  17
BRANCH  13  18
ATOM     18  C   LIG    1       -0.213 -11.025 -21.794  0.00  0.00    +0.260 C 
ATOM     19  C   LIG    1       -0.335 -12.314 -22.609  0.00  0.00    +0.015 C 
ENDBRANCH  13  18
ENDBRANCH  11  14
BRANCH  11  20
ATOM     20  C   LIG    1       -3.860 -10.577 -21.753  0.00  0.00    +0.276 C 
ATOM     21  N   LIG    1       -4.769 -11.208 -22.011  0.00  0.00    -0.440 NA
ENDBRANCH  11  20
ENDBRANCH   1  12
BRANCH   6  22
ATOM     22  O   LIG    1       -5.721  -9.010 -16.542  0.00  0.00    -0.479 OA
ATOM     23  H   LIG    1       -5.688  -8.071 -16.771  0.00  0.00    +0.372 HD
ENDBRANCH   6  22
TORSDOF 7
ENDMDL
MODEL 4
REMARK VINA RESULT:      -5.3      4.591      6.088
REMARK  Name = CHEMBL953
REMARK                            x       y       z     vdW  Elec       q    Type
REMARK                         _______ _______ _______ _____ _____    ______ ____
ROOT
ATOM      1  C   LIG    1       -2.934 -14.680 -19.242  0.00  0.00    -0.238 A 
ATOM      2  C   LIG    1       -2.908 -13.568 -20.096  0.00  0.00    +0.185 A 
ATOM      3  C   LIG    1       -3.435 -12.368 -19.679  0.00  0.00    -0.196 A 
ATOM      4  C   LIG    1       -3.995 -12.252 -18.412  0.00  0.00    +0.308 A 
ATOM      5  O   LIG    1       -4.513 -11.066 -18.006  0.00  0.00    -0.599 OA
ATOM      6  C   LIG    1       -4.024 -13.354 -17.555  0.00  0.00    -0.011 A 
ATOM      7  C   LIG    1       -3.504 -14.563 -17.966  0.00  0.00    +0.081 A 
ENDROOT
BRANCH   3   8
ATOM      8  N   LIG    1       -3.407 -11.195 -20.582  0.00  0.00    +0.068 N 
ATOM      9  O   LIG    1       -4.266 -11.058 -21.421  0.00  0.00    -0.153 OA
ATOM     10  O   LIG    1       -2.525 -10.374 -20.478  0.00  0.00    -0.245 OA
ENDBRANCH   3   8
BRANCH   1  12
ATOM     11  C   LIG    1       -2.882 -16.583 -20.803  0.00  0.00    -0.204 C 
ATOM     12  C   LIG    1       -2.374 -15.958 -19.683  0.00  0.00    +0.284 C 
BRANCH  11  14
ATOM     13  N   LIG    1       -3.191 -19.005 -20.818  0.00  0.00    -0.613 N 
ATOM     14  C   LIG    1       -2.436 -17.940 -21.154  0.00  0.00    +0.584 C 
ATOM     15  O   LIG    1       -1.387 -18.101 -21.749  0.00  0.00    -0.539 OA
BRANCH  13  17
ATOM     16  C   LIG    1       -1.970 -20.868 -19.808  0.00  0.00    +0.012 C 
ATOM     17  C   LIG    1       -2.692 -20.361 -21.058  0.00  0.00    +0.272 C 
ENDBRANCH  13  17
BRANCH  13  18
ATOM     18  C   LIG    1       -4.510 -18.806 -20.214  0.00  0.00    +0.260 C 
ATOM     19  C   LIG    1       -5.435 -19.955 -20.618  0.00  0.00    +0.015 C 
ENDBRANCH  13  18
ENDBRANCH  11  14
BRANCH  11  20
ATOM     20  C   LIG    1       -3.843 -15.910 -21.623  0.00  0.00    +0.276 C 
ATOM     21  N   LIG    1       -4.607 -15.377 -22.274  0.00  0.00    -0.440 NA
ENDBRANCH  11  20
ENDBRANCH   1  12
BRANCH   6  22
ATOM     22  O   LIG    1       -4.572 -13.235 -16.316  0.00  0.00    -0.479 OA
ATOM     23  H   LIG    1       -5.410 -12.755 -16.301  0.00  0.00    +0.372 HD
ENDBRANCH   6  22
TORSDOF 7
ENDMDL
MODEL 5
REMARK VINA RESULT:      -5.2      3.518      4.862
REMARK  Name = CHEMBL953
REMARK                            x       y       z     vdW  Elec       q    Type
REMARK                         _______ _______ _______ _____ _____    ______ ____
ROOT
ATOM      1  C   LIG    1       -2.224  -9.489 -20.753  0.00  0.00    -0.238 A 
ATOM      2  C   LIG    1       -2.585  -9.778 -19.428  0.00  0.00    +0.185 A 
ATOM      3  C   LIG    1       -3.453 -10.811 -19.162  0.00  0.00    -0.196 A 
ATOM      4  C   LIG    1       -3.975 -11.572 -20.201  0.00  0.00    +0.308 A 
ATOM      5  O   LIG    1       -4.830 -12.590 -19.931  0.00  0.00    -0.599 OA
ATOM      6  C   LIG    1       -3.621 -11.292 -21.522  0.00  0.00    -0.011 A 
ATOM      7  C   LIG    1       -2.756 -10.254 -21.801  0.00  0.00    +0.081 A 
ENDROOT
BRANCH   3   8
ATOM      8  N   LIG    1       -3.833 -11.114 -17.764  0.00  0.00    +0.068 N 
ATOM      9  O   LIG    1       -4.577 -10.373 -17.165  0.00  0.00    -0.153 OA
ATOM     10  O   LIG    1       -3.399 -12.104 -17.221  0.00  0.00    -0.245 OA
ENDBRANCH   3   8
BRANCH   1  12
ATOM     11  C   LIG    1        0.018  -8.659 -21.337  0.00  0.00    -0.204 C 
ATOM     12  C   LIG    1       -1.301  -8.390 -21.040  0.00  0.00    +0.284 C 
BRANCH  11  14
ATOM     13  N   LIG    1        1.157  -6.945 -22.652  0.00  0.00    -0.613 N 
ATOM     14  C   LIG    1        0.983  -7.556 -21.463  0.00  0.00    +0.584 C 
ATOM     15  O   LIG    1        1.623  -7.194 -20.493  0.00  0.00    -0.539 OA
BRANCH  13  17
ATOM     16  C   LIG    1        3.404  -6.542 -23.531  0.00  0.00    +0.012 C 
ATOM     17  C   LIG    1        2.203  -5.930 -22.807  0.00  0.00    +0.272 C 
ENDBRANCH  13  17
BRANCH  13  18
ATOM     18  C   LIG    1        0.301  -7.295 -23.787  0.00  0.00    +0.260 C 
ATOM     19  C   LIG    1       -0.727  -6.185 -24.012  0.00  0.00    +0.015 C 
ENDBRANCH  13  18
ENDBRANCH  11  14
BRANCH  11  20
ATOM     20  C   LIG    1        0.449 -10.012 -21.523  0.00  0.00    +0.276 C 
ATOM     21  N   LIG    1        0.789 -11.086 -21.669  0.00  0.00    -0.440 NA
ENDBRANCH  11  20
ENDBRANCH   1  12
BRANCH   6  22
ATOM     22  O   LIG    1       -4.134 -12.040 -22.535  0.00  0.00    -0.479 OA
ATOM     23  H   LIG    1       -3.981 -11.669 -23.414  0.00  0.00    +0.372 HD
ENDBRANCH   6  22
TORSDOF 7
ENDMDL
MODEL 6
REMARK VINA RESULT:      -5.1     11.541     12.720
REMARK  Name = CHEMBL953
REMARK                            x       y       z     vdW  Elec       q    Type
REMARK                         _______ _______ _______ _____ _____    ______ ____
ROOT
ATOM      1  C   LIG    1        6.592  -6.152 -18.146  0.00  0.00    -0.238 A 
ATOM      2  C   LIG    1        7.072  -5.009 -18.805  0.00  0.00    +0.185 A 
ATOM      3  C   LIG    1        7.438  -3.900 -18.079  0.00  0.00    -0.196 A 
ATOM      4  C   LIG    1        7.335  -3.906 -16.693  0.00  0.00    +0.308 A 
ATOM      5  O   LIG    1        7.699  -2.809 -15.983  0.00  0.00    -0.599 OA
ATOM      6  C   LIG    1        6.860  -5.038 -16.030  0.00  0.00    -0.011 A 
ATOM      7  C   LIG    1        6.485  -6.154 -16.749  0.00  0.00    +0.081 A 
ENDROOT
BRANCH   3   8
ATOM      8  N   LIG    1        7.942  -2.696 -18.775  0.00  0.00    +0.068 N 
ATOM      9  O   LIG    1        9.127  -2.565 -18.976  0.00  0.00    -0.153 OA
ATOM     10  O   LIG    1        7.169  -1.842 -19.143  0.00  0.00    -0.245 OA
ENDBRANCH   3   8
BRANCH   1  12
ATOM     11  C   LIG    1        7.169  -8.158 -19.452  0.00  0.00    -0.204 C 
ATOM     12  C   LIG    1        6.202  -7.334 -18.916  0.00  0.00    +0.284 C 
BRANCH  11  14
ATOM     13  N   LIG    1        6.588 -10.491 -19.877  0.00  0.00    -0.613 N 
ATOM     14  C   LIG    1        6.786  -9.249 -20.361  0.00  0.00    +0.584 C 
ATOM     15  O   LIG    1        6.645  -9.029 -21.550  0.00  0.00    -0.539 OA
BRANCH  13  17
ATOM     16  C   LIG    1        4.825 -11.896 -20.824  0.00  0.00    +0.012 C 
ATOM     17  C   LIG    1        6.326 -11.601 -20.796  0.00  0.00    +0.272 C 
ENDBRANCH  13  17
BRANCH  13  18
ATOM     18  C   LIG    1        6.635 -10.730 -18.433  0.00  0.00    +0.260 C 
ATOM     19  C   LIG    1        7.722 -11.761 -18.122  0.00  0.00    +0.015 C 
ENDBRANCH  13  18
ENDBRANCH  11  14
BRANCH  11  20
ATOM     20  C   LIG    1        8.547  -7.951 -19.123  0.00  0.00    +0.276 C 
ATOM     21  N   LIG    1        9.641  -7.785 -18.862  0.00  0.00    -0.440 NA
ENDBRANCH  11  20
ENDBRANCH   1  12
BRANCH   6  22
ATOM     22  O   LIG    1        6.763  -5.040 -14.673  0.00  0.00    -0.479 OA
ATOM     23  H   LIG    1        6.567  -4.173 -14.292  0.00  0.00    +0.372 HD
ENDBRANCH   6  22
TORSDOF 7
ENDMDL
MODEL 7
REMARK VINA RESULT:      -5.1      3.855      5.960
REMARK  Name = CHEMBL953
REMARK                            x       y       z     vdW  Elec       q    Type
REMARK                         _______ _______ _______ _____ _____    ______ ____
ROOT
ATOM      1  C   LIG    1       -5.658 -12.916 -22.585  0.00  0.00    -0.238 A 
ATOM      2  C   LIG    1       -6.928 -12.514 -22.144  0.00  0.00    +0.185 A 
ATOM      3  C   LIG    1       -8.051 -12.912 -22.830  0.00  0.00    -0.196 A 
ATOM      4  C   LIG    1       -7.934 -13.712 -23.961  0.00  0.00    +0.308 A 
ATOM      5  O   LIG    1       -9.046 -14.101 -24.633  0.00  0.00    -0.599 OA
ATOM      6  C   LIG    1       -6.674 -14.117 -24.406  0.00  0.00    -0.011 A 
ATOM      7  C   LIG    1       -5.541 -13.718 -23.728  0.00  0.00    +0.081 A 
ENDROOT
BRANCH   3   8
ATOM      8  N   LIG    1       -9.390 -12.487 -22.364  0.00  0.00    +0.068 N 
ATOM      9  O   LIG    1       -9.892 -11.479 -22.803  0.00  0.00    -0.153 OA
ATOM     10  O   LIG    1       -9.983 -13.150 -21.545  0.00  0.00    -0.245 OA
ENDBRANCH   3   8
BRANCH   1  12
ATOM     11  C   LIG    1       -3.832 -11.313 -22.190  0.00  0.00    -0.204 C 
ATOM     12  C   LIG    1       -4.460 -12.494 -21.856  0.00  0.00    +0.284 C 
BRANCH  11  14
ATOM     13  N   LIG    1       -2.508 -10.326 -20.391  0.00  0.00    -0.613 N 
ATOM     14  C   LIG    1       -2.541 -10.968 -21.575  0.00  0.00    +0.584 C 
ATOM     15  O   LIG    1       -1.502 -11.263 -22.136  0.00  0.00    -0.539 OA
BRANCH  13  17
ATOM     16  C   LIG    1       -1.024  -8.395 -20.169  0.00  0.00    +0.012 C 
ATOM     17  C   LIG    1       -1.229  -9.874 -19.837  0.00  0.00    +0.272 C 
ENDBRANCH  13  17
BRANCH  13  18
ATOM     18  C   LIG    1       -3.752 -10.080 -19.657  0.00  0.00    +0.260 C 
ATOM     19  C   LIG    1       -3.797 -10.974 -18.417  0.00  0.00    +0.015 C 
ENDBRANCH  13  18
ENDBRANCH  11  14
BRANCH  11  20
ATOM     20  C   LIG    1       -4.436 -10.423 -23.135  0.00  0.00    +0.276 C 
ATOM     21  N   LIG    1       -4.917  -9.717 -23.884  0.00  0.00    -0.440 NA
ENDBRANCH  11  20
ENDBRANCH   1  12
BRANCH   6  22
ATOM     22  O   LIG    1       -6.565 -14.900 -25.512  0.00  0.00    -0.479 OA
ATOM     23  H   LIG    1       -6.910 -14.493 -26.318  0.00  0.00    +0.372 HD
ENDBRANCH   6  22
TORSDOF 7
ENDMDL
MODEL 8
REMARK VINA RESULT:      -5.1      4.074      5.408
REMARK  Name = CHEMBL953
REMARK                            x       y       z     vdW  Elec       q    Type
REMARK                         _______ _______ _______ _____ _____    ______ ____
ROOT
ATOM      1  C   LIG    1       -0.992  -9.622 -20.330  0.00  0.00    -0.238 A 
ATOM      2  C   LIG    1       -1.975  -9.480 -19.338  0.00  0.00    +0.185 A 
ATOM      3  C   LIG    1       -3.090 -10.285 -19.356  0.00  0.00    -0.196 A 
ATOM      4  C   LIG    1       -3.247 -11.241 -20.353  0.00  0.00    +0.308 A 
ATOM      5  O   LIG    1       -4.349 -12.033 -20.363  0.00  0.00    -0.599 OA
ATOM      6  C   LIG    1       -2.274 -11.390 -21.342  0.00  0.00    -0.011 A 
ATOM      7  C   LIG    1       -1.155 -10.583 -21.337  0.00  0.00    +0.081 A 
ENDROOT
BRANCH   3   8
ATOM      8  N   LIG    1       -4.126 -10.135 -18.310  0.00  0.00    +0.068 N 
ATOM      9  O   LIG    1       -4.768  -9.113 -18.237  0.00  0.00    -0.153 OA
ATOM     10  O   LIG    1       -4.330 -11.034 -17.527  0.00  0.00    -0.245 OA
ENDBRANCH   3   8
BRANCH   1  12
ATOM     11  C   LIG    1        0.376  -7.820 -21.301  0.00  0.00    -0.204 C 
ATOM     12  C   LIG    1        0.195  -8.766 -20.314  0.00  0.00    +0.284 C 
BRANCH  11  14
ATOM     13  N   LIG    1        2.613  -7.486 -22.220  0.00  0.00    -0.613 N 
ATOM     14  C   LIG    1        1.641  -7.074 -21.383  0.00  0.00    +0.584 C 
ATOM     15  O   LIG    1        1.809  -6.084 -20.696  0.00  0.00    -0.539 OA
BRANCH  13  17
ATOM     16  C   LIG    1        4.012  -5.875 -23.416  0.00  0.00    +0.012 C 
ATOM     17  C   LIG    1        3.916  -6.817 -22.214  0.00  0.00    +0.272 C 
ENDBRANCH  13  17
BRANCH  13  18
ATOM     18  C   LIG    1        2.366  -8.602 -23.136  0.00  0.00    +0.260 C 
ATOM     19  C   LIG    1        3.174  -9.820 -22.686  0.00  0.00    +0.015 C 
ENDBRANCH  13  18
ENDBRANCH  11  14
BRANCH  11  20
ATOM     20  C   LIG    1       -0.669  -7.565 -22.247  0.00  0.00    +0.276 C 
ATOM     21  N   LIG    1       -1.499  -7.362 -22.996  0.00  0.00    -0.440 NA
ENDBRANCH  11  20
ENDBRANCH   1  12
BRANCH   6  22
ATOM     22  O   LIG    1       -2.432 -12.327 -22.314  0.00  0.00    -0.479 OA
ATOM     23  H   LIG    1       -2.549 -11.959 -23.201  0.00  0.00    +0.372 HD
ENDBRANCH   6  22
TORSDOF 7
ENDMDL
MODEL 9
REMARK VINA RESULT:      -5.0      3.832      7.176
REMARK  Name = CHEMBL953
REMARK                            x       y       z     vdW  Elec       q    Type
REMARK                         _______ _______ _______ _____ _____    ______ ____
ROOT
ATOM      1  C   LIG    1       -0.389  -8.900 -21.050  0.00  0.00    -0.238 A 
ATOM      2  C   LIG    1       -0.639  -7.665 -21.667  0.00  0.00    +0.185 A 
ATOM      3  C   LIG    1        0.162  -7.239 -22.701  0.00  0.00    -0.196 A 
ATOM      4  C   LIG    1        1.219  -8.029 -23.138  0.00  0.00    +0.308 A 
ATOM      5  O   LIG    1        2.004  -7.604 -24.160  0.00  0.00    -0.599 OA
ATOM      6  C   LIG    1        1.474  -9.259 -22.531  0.00  0.00    -0.011 A 
ATOM      7  C   LIG    1        0.681  -9.693 -21.488  0.00  0.00    +0.081 A 
ENDROOT
BRANCH   3   8
ATOM      8  N   LIG    1       -0.102  -5.936 -23.351  0.00  0.00    +0.068 N 
ATOM      9  O   LIG    1       -0.980  -5.838 -24.176  0.00  0.00    -0.153 OA
ATOM     10  O   LIG    1        0.562  -4.969 -23.056  0.00  0.00    -0.245 OA
ENDBRANCH   3   8
BRANCH   1  12
ATOM     11  C   LIG    1       -2.529  -9.773 -20.201  0.00  0.00    -0.204 C 
ATOM     12  C   LIG    1       -1.239  -9.355 -19.949  0.00  0.00    +0.284 C 
BRANCH  11  14
ATOM     13  N   LIG    1       -3.785 -11.349 -18.823  0.00  0.00    -0.613 N 
ATOM     14  C   LIG    1       -3.437 -10.073 -19.084  0.00  0.00    +0.584 C 
ATOM     15  O   LIG    1       -3.873  -9.170 -18.395  0.00  0.00    -0.539 OA
BRANCH  13  17
ATOM     16  C   LIG    1       -4.272 -12.765 -16.889  0.00  0.00    +0.012 C 
ATOM     17  C   LIG    1       -4.783 -11.639 -17.790  0.00  0.00    +0.272 C 
ENDBRANCH  13  17
BRANCH  13  18
ATOM     18  C   LIG    1       -3.165 -12.445 -19.572  0.00  0.00    +0.260 C 
ATOM     19  C   LIG    1       -4.213 -13.106 -20.469  0.00  0.00    +0.015 C 
ENDBRANCH  13  18
ENDBRANCH  11  14
BRANCH  11  20
ATOM     20  C   LIG    1       -2.983  -9.914 -21.552  0.00  0.00    +0.276 C 
ATOM     21  N   LIG    1       -3.345 -10.026 -22.623  0.00  0.00    -0.440 NA
ENDBRANCH  11  20
ENDBRANCH   1  12
BRANCH   6  22
ATOM     22  O   LIG    1        2.508 -10.029 -22.963  0.00  0.00    -0.479 OA
ATOM     23  H   LIG    1        2.364 -10.979 -22.855  0.00  0.00    +0.372 HD
ENDBRANCH   6  22
TORSDOF 7
ENDMDL
