MODEL 1
REMARK VINA RESULT:      -6.2      0.000      0.000
REMARK  Name = CHEMBL197115
REMARK                            x       y       z     vdW  Elec       q    Type
REMARK                         _______ _______ _______ _____ _____    ______ ____
ROOT
ATOM      1  C   LIG    1       -3.393   0.033 -22.424  0.00  0.00    -0.280 A 
ATOM      2  C   LIG    1       -4.566  -0.370 -23.074  0.00  0.00    +0.115 A 
ATOM      3  C   LIG    1       -4.539  -0.677 -24.416  0.00  0.00    -0.119 A 
ATOM      4  C   LIG    1       -3.349  -0.586 -25.128  0.00  0.00    +0.292 A 
ATOM      5  O   LIG    1       -3.328  -0.890 -26.452  0.00  0.00    -0.659 OA
ATOM      6  C   LIG    1       -2.176  -0.186 -24.488  0.00  0.00    -0.006 A 
ATOM      7  C   LIG    1       -2.196   0.129 -23.144  0.00  0.00    +0.057 A 
ENDROOT
BRANCH   7   8
ATOM      8  N   LIG    1       -0.954   0.560 -22.464  0.00  0.00    +0.052 N 
ATOM      9  O   LIG    1       -0.140  -0.262 -22.116  0.00  0.00    -0.166 OA
ATOM     10  O   LIG    1       -0.754   1.734 -22.258  0.00  0.00    -0.151 OA
ENDBRANCH   7   8
BRANCH   1  11
ATOM     11  C   LIG    1       -3.420   0.361 -20.992  0.00  0.00    +0.398 C 
ATOM     12  O   LIG    1       -3.488   1.519 -20.637  0.00  0.00    -0.468 OA
BRANCH  11  13
ATOM     13  C   LIG    1       -3.363  -0.740 -19.965  0.00  0.00    +0.090 C 
BRANCH  13  17
ATOM     14  C   LIG    1       -7.332  -1.781 -18.777  0.00  0.00    -0.007 A 
ATOM     15  C   LIG    1       -6.786  -0.574 -18.380  0.00  0.00    +0.000 A 
ATOM     16  C   LIG    1       -5.501  -0.238 -18.765  0.00  0.00    +0.012 A 
ATOM     17  C   LIG    1       -4.763  -1.107 -19.545  0.00  0.00    -0.066 A 
ATOM     18  C   LIG    1       -5.309  -2.314 -19.941  0.00  0.00    +0.012 A 
ATOM     19  C   LIG    1       -6.594  -2.650 -19.558  0.00  0.00    +0.000 A 
ENDBRANCH  13  17
ENDBRANCH  11  13
ENDBRANCH   1  11
BRANCH   6  20
ATOM     20  O   LIG    1       -1.014  -0.101 -25.189  0.00  0.00    -0.480 OA
ATOM     21  H   LIG    1       -0.475   0.671 -24.964  0.00  0.00    +0.373 HD
ENDBRANCH   6  20
TORSDOF 5
ENDMDL
MODEL 2
REMARK VINA RESULT:      -5.9     10.824     12.645
REMARK  Name = CHEMBL197115
REMARK                            x       y       z     vdW  Elec       q    Type
REMARK                         _______ _______ _______ _____ _____    ______ ____
ROOT
ATOM      1  C   LIG    1       -3.759 -11.566 -19.630  0.00  0.00    -0.280 A 
ATOM      2  C   LIG    1       -4.131 -10.418 -18.920  0.00  0.00    +0.115 A 
ATOM      3  C   LIG    1       -4.564 -10.525 -17.618  0.00  0.00    -0.119 A 
ATOM      4  C   LIG    1       -4.637 -11.770 -17.005  0.00  0.00    +0.292 A 
ATOM      5  O   LIG    1       -5.066 -11.869 -15.721  0.00  0.00    -0.659 OA
ATOM      6  C   LIG    1       -4.269 -12.919 -17.706  0.00  0.00    -0.006 A 
ATOM      7  C   LIG    1       -3.838 -12.822 -19.013  0.00  0.00    +0.057 A 
ENDROOT
BRANCH   7   8
ATOM      8  N   LIG    1       -3.453 -14.040 -19.761  0.00  0.00    +0.052 N 
ATOM      9  O   LIG    1       -4.113 -14.403 -20.705  0.00  0.00    -0.166 OA
ATOM     10  O   LIG    1       -2.478 -14.672 -19.426  0.00  0.00    -0.151 OA
ENDBRANCH   7   8
BRANCH   1  11
ATOM     11  C   LIG    1       -3.297 -11.455 -21.020  0.00  0.00    +0.398 C 
ATOM     12  O   LIG    1       -4.103 -11.389 -21.923  0.00  0.00    -0.468 OA
BRANCH  11  13
ATOM     13  C   LIG    1       -1.821 -11.425 -21.322  0.00  0.00    +0.090 C 
BRANCH  13  17
ATOM     14  C   LIG    1       -0.511  -7.368 -21.596  0.00  0.00    -0.007 A 
ATOM     15  C   LIG    1       -1.144  -7.965 -22.672  0.00  0.00    +0.000 A 
ATOM     16  C   LIG    1       -1.567  -9.277 -22.583  0.00  0.00    +0.012 A 
ATOM     17  C   LIG    1       -1.358  -9.994 -21.420  0.00  0.00    -0.066 A 
ATOM     18  C   LIG    1       -0.725  -9.398 -20.344  0.00  0.00    +0.012 A 
ATOM     19  C   LIG    1       -0.303  -8.085 -20.433  0.00  0.00    +0.000 A 
ENDBRANCH  13  17
ENDBRANCH  11  13
ENDBRANCH   1  11
BRANCH   6  20
ATOM     20  O   LIG    1       -4.339 -14.136 -17.102  0.00  0.00    -0.480 OA
ATOM     21  H   LIG    1       -4.494 -14.869 -17.714  0.00  0.00    +0.373 HD
ENDBRANCH   6  20
TORSDOF 5
ENDMDL
MODEL 3
REMARK VINA RESULT:      -5.8     10.257     12.049
REMARK  Name = CHEMBL197115
REMARK                            x       y       z     vdW  Elec       q    Type
REMARK                         _______ _______ _______ _____ _____    ______ ____
ROOT
ATOM      1  C   LIG    1       -3.462 -11.887 -19.937  0.00  0.00    -0.280 A 
ATOM      2  C   LIG    1       -3.332 -13.281 -19.944  0.00  0.00    +0.115 A 
ATOM      3  C   LIG    1       -3.471 -13.991 -18.774  0.00  0.00    -0.119 A 
ATOM      4  C   LIG    1       -3.736 -13.328 -17.582  0.00  0.00    +0.292 A 
ATOM      5  O   LIG    1       -3.870 -14.034 -16.430  0.00  0.00    -0.659 OA
ATOM      6  C   LIG    1       -3.866 -11.939 -17.565  0.00  0.00    -0.006 A 
ATOM      7  C   LIG    1       -3.724 -11.219 -18.734  0.00  0.00    +0.057 A 
ENDROOT
BRANCH   7   8
ATOM      8  N   LIG    1       -3.855  -9.744 -18.718  0.00  0.00    +0.052 N 
ATOM      9  O   LIG    1       -2.902  -9.050 -18.982  0.00  0.00    -0.166 OA
ATOM     10  O   LIG    1       -4.916  -9.235 -18.441  0.00  0.00    -0.151 OA
ENDBRANCH   7   8
BRANCH   1  11
ATOM     11  C   LIG    1       -3.314 -11.126 -21.185  0.00  0.00    +0.398 C 
ATOM     12  O   LIG    1       -4.244 -10.474 -21.611  0.00  0.00    -0.468 OA
BRANCH  11  13
ATOM     13  C   LIG    1       -2.009 -11.158 -21.937  0.00  0.00    +0.090 C 
BRANCH  13  17
ATOM     14  C   LIG    1        0.067  -7.472 -21.342  0.00  0.00    -0.007 A 
ATOM     15  C   LIG    1        0.413  -8.588 -20.602  0.00  0.00    +0.000 A 
ATOM     16  C   LIG    1       -0.259  -9.780 -20.795  0.00  0.00    +0.012 A 
ATOM     17  C   LIG    1       -1.277  -9.858 -21.726  0.00  0.00    -0.066 A 
ATOM     18  C   LIG    1       -1.623  -8.742 -22.466  0.00  0.00    +0.012 A 
ATOM     19  C   LIG    1       -0.950  -7.550 -22.275  0.00  0.00    +0.000 A 
ENDBRANCH  13  17
ENDBRANCH  11  13
ENDBRANCH   1  11
BRANCH   6  20
ATOM     20  O   LIG    1       -4.127 -11.294 -16.397  0.00  0.00    -0.480 OA
ATOM     21  H   LIG    1       -5.014 -10.909 -16.351  0.00  0.00    +0.373 HD
ENDBRANCH   6  20
TORSDOF 5
ENDMDL
MODEL 4
REMARK VINA RESULT:      -5.5     12.758     14.491
REMARK  Name = CHEMBL197115
REMARK                            x       y       z     vdW  Elec       q    Type
REMARK                         _______ _______ _______ _____ _____    ______ ____
ROOT
ATOM      1  C   LIG    1       -3.269 -13.440 -19.550  0.00  0.00    -0.280 A 
ATOM      2  C   LIG    1       -3.721 -13.965 -18.333  0.00  0.00    +0.115 A 
ATOM      3  C   LIG    1       -4.182 -13.121 -17.348  0.00  0.00    -0.119 A 
ATOM      4  C   LIG    1       -4.196 -11.747 -17.556  0.00  0.00    +0.292 A 
ATOM      5  O   LIG    1       -4.651 -10.920 -16.581  0.00  0.00    -0.659 OA
ATOM      6  C   LIG    1       -3.747 -11.216 -18.766  0.00  0.00    -0.006 A 
ATOM      7  C   LIG    1       -3.280 -12.055 -19.757  0.00  0.00    +0.057 A 
ENDROOT
BRANCH   7   8
ATOM      8  N   LIG    1       -2.797 -11.493 -21.039  0.00  0.00    +0.052 N 
ATOM      9  O   LIG    1       -1.623 -11.245 -21.185  0.00  0.00    -0.166 OA
ATOM     10  O   LIG    1       -3.576 -11.282 -21.938  0.00  0.00    -0.151 OA
ENDBRANCH   7   8
BRANCH   1  11
ATOM     11  C   LIG    1       -2.777 -14.339 -20.603  0.00  0.00    +0.398 C 
ATOM     12  O   LIG    1       -1.632 -14.737 -20.574  0.00  0.00    -0.468 OA
BRANCH  11  13
ATOM     13  C   LIG    1       -3.695 -14.765 -21.719  0.00  0.00    +0.090 C 
BRANCH  13  17
ATOM     14  C   LIG    1       -4.790 -18.858 -21.174  0.00  0.00    -0.007 A 
ATOM     15  C   LIG    1       -5.270 -18.153 -22.263  0.00  0.00    +0.000 A 
ATOM     16  C   LIG    1       -4.916 -16.829 -22.438  0.00  0.00    +0.012 A 
ATOM     17  C   LIG    1       -4.083 -16.209 -21.527  0.00  0.00    -0.066 A 
ATOM     18  C   LIG    1       -3.602 -16.914 -20.438  0.00  0.00    +0.012 A 
ATOM     19  C   LIG    1       -3.955 -18.238 -20.263  0.00  0.00    +0.000 A 
ENDBRANCH  13  17
ENDBRANCH  11  13
ENDBRANCH   1  11
BRANCH   6  20
ATOM     20  O   LIG    1       -3.765  -9.871 -18.966  0.00  0.00    -0.480 OA
ATOM     21  H   LIG    1       -4.110  -9.366 -18.216  0.00  0.00    +0.373 HD
ENDBRANCH   6  20
TORSDOF 5
ENDMDL
MODEL 5
REMARK VINA RESULT:      -5.5      1.252      1.867
REMARK  Name = CHEMBL197115
REMARK                            x       y       z     vdW  Elec       q    Type
REMARK                         _______ _______ _______ _____ _____    ______ ____
ROOT
ATOM      1  C   LIG    1       -2.921   0.024 -23.467  0.00  0.00    -0.280 A 
ATOM      2  C   LIG    1       -4.231  -0.238 -23.887  0.00  0.00    +0.115 A 
ATOM      3  C   LIG    1       -4.453  -0.929 -25.057  0.00  0.00    -0.119 A 
ATOM      4  C   LIG    1       -3.381  -1.366 -25.824  0.00  0.00    +0.292 A 
ATOM      5  O   LIG    1       -3.607  -2.047 -26.977  0.00  0.00    -0.659 OA
ATOM      6  C   LIG    1       -2.073  -1.109 -25.413  0.00  0.00    -0.006 A 
ATOM      7  C   LIG    1       -1.841  -0.413 -24.245  0.00  0.00    +0.057 A 
ENDROOT
BRANCH   7   8
ATOM      8  N   LIG    1       -0.454  -0.133 -23.810  0.00  0.00    +0.052 N 
ATOM      9  O   LIG    1        0.191  -0.993 -23.257  0.00  0.00    -0.166 OA
ATOM     10  O   LIG    1        0.035   0.955 -24.008  0.00  0.00    -0.151 OA
ENDBRANCH   7   8
BRANCH   1  11
ATOM     11  C   LIG    1       -2.681   0.761 -22.219  0.00  0.00    +0.398 C 
ATOM     12  O   LIG    1       -2.674   1.974 -22.224  0.00  0.00    -0.468 OA
BRANCH  11  13
ATOM     13  C   LIG    1       -2.443   0.011 -20.934  0.00  0.00    +0.090 C 
BRANCH  13  17
ATOM     14  C   LIG    1       -6.093  -0.226 -18.728  0.00  0.00    -0.007 A 
ATOM     15  C   LIG    1       -5.623  -1.335 -19.408  0.00  0.00    +0.000 A 
ATOM     16  C   LIG    1       -4.443  -1.258 -20.122  0.00  0.00    +0.012 A 
ATOM     17  C   LIG    1       -3.732  -0.073 -20.157  0.00  0.00    -0.066 A 
ATOM     18  C   LIG    1       -4.202   1.036 -19.477  0.00  0.00    +0.012 A 
ATOM     19  C   LIG    1       -5.382   0.958 -18.762  0.00  0.00    +0.000 A 
ENDBRANCH  13  17
ENDBRANCH  11  13
ENDBRANCH   1  11
BRANCH   6  20
ATOM     20  O   LIG    1       -1.026  -1.541 -26.167  0.00  0.00    -0.480 OA
ATOM     21  H   LIG    1       -1.111  -2.455 -26.471  0.00  0.00    +0.373 HD
ENDBRANCH   6  20
TORSDOF 5
ENDMDL
MODEL 6
REMARK VINA RESULT:      -5.5      8.996     10.254
REMARK  Name = CHEMBL197115
REMARK                            x       y       z     vdW  Elec       q    Type
REMARK                         _______ _______ _______ _____ _____    ______ ____
ROOT
ATOM      1  C   LIG    1       -1.648  -9.800 -21.443  0.00  0.00    -0.280 A 
ATOM      2  C   LIG    1       -0.850  -9.603 -20.310  0.00  0.00    +0.115 A 
ATOM      3  C   LIG    1       -0.061  -8.480 -20.211  0.00  0.00    -0.119 A 
ATOM      4  C   LIG    1       -0.050  -7.541 -21.235  0.00  0.00    +0.292 A 
ATOM      5  O   LIG    1        0.731  -6.436 -21.133  0.00  0.00    -0.659 OA
ATOM      6  C   LIG    1       -0.842  -7.731 -22.368  0.00  0.00    -0.006 A 
ATOM      7  C   LIG    1       -1.633  -8.856 -22.478  0.00  0.00    +0.057 A 
ENDROOT
BRANCH   7   8
ATOM      8  N   LIG    1       -2.468  -9.063 -23.682  0.00  0.00    +0.052 N 
ATOM      9  O   LIG    1       -2.081  -9.786 -24.569  0.00  0.00    -0.166 OA
ATOM     10  O   LIG    1       -3.538  -8.507 -23.779  0.00  0.00    -0.151 OA
ENDBRANCH   7   8
BRANCH   1  11
ATOM     11  C   LIG    1       -2.492 -10.999 -21.551  0.00  0.00    +0.398 C 
ATOM     12  O   LIG    1       -2.046 -12.011 -22.048  0.00  0.00    -0.468 OA
BRANCH  11  13
ATOM     13  C   LIG    1       -3.911 -10.969 -21.045  0.00  0.00    +0.090 C 
BRANCH  13  17
ATOM     14  C   LIG    1       -4.061 -12.663 -17.126  0.00  0.00    -0.007 A 
ATOM     15  C   LIG    1       -4.075 -11.289 -17.287  0.00  0.00    +0.000 A 
ATOM     16  C   LIG    1       -4.026 -10.742 -18.555  0.00  0.00    +0.012 A 
ATOM     17  C   LIG    1       -3.963 -11.566 -19.662  0.00  0.00    -0.066 A 
ATOM     18  C   LIG    1       -3.949 -12.940 -19.502  0.00  0.00    +0.012 A 
ATOM     19  C   LIG    1       -3.999 -13.487 -18.234  0.00  0.00    +0.000 A 
ENDBRANCH  13  17
ENDBRANCH  11  13
ENDBRANCH   1  11
BRANCH   6  20
ATOM     20  O   LIG    1       -0.830  -6.808 -23.368  0.00  0.00    -0.480 OA
ATOM     21  H   LIG    1       -0.958  -5.899 -23.065  0.00  0.00    +0.373 HD
ENDBRANCH   6  20
TORSDOF 5
ENDMDL
MODEL 7
REMARK VINA RESULT:      -5.3     11.043     12.853
REMARK  Name = CHEMBL197115
REMARK                            x       y       z     vdW  Elec       q    Type
REMARK                         _______ _______ _______ _____ _____    ______ ____
ROOT
ATOM      1  C   LIG    1        7.449  -5.265 -18.198  0.00  0.00    -0.280 A 
ATOM      2  C   LIG    1        7.029  -6.121 -17.173  0.00  0.00    +0.115 A 
ATOM      3  C   LIG    1        6.634  -5.602 -15.960  0.00  0.00    -0.119 A 
ATOM      4  C   LIG    1        6.655  -4.228 -15.749  0.00  0.00    +0.292 A 
ATOM      5  O   LIG    1        6.265  -3.722 -14.552  0.00  0.00    -0.659 OA
ATOM      6  C   LIG    1        7.073  -3.368 -16.765  0.00  0.00    -0.006 A 
ATOM      7  C   LIG    1        7.475  -3.881 -17.982  0.00  0.00    +0.057 A 
ENDROOT
BRANCH   7   8
ATOM      8  N   LIG    1        7.925  -2.971 -19.059  0.00  0.00    +0.052 N 
ATOM      9  O   LIG    1        9.101  -2.878 -19.319  0.00  0.00    -0.166 OA
ATOM     10  O   LIG    1        7.116  -2.321 -19.679  0.00  0.00    -0.151 OA
ENDBRANCH   7   8
BRANCH   1  11
ATOM     11  C   LIG    1        7.871  -5.817 -19.492  0.00  0.00    +0.398 C 
ATOM     12  O   LIG    1        9.014  -6.191 -19.648  0.00  0.00    -0.468 OA
BRANCH  11  13
ATOM     13  C   LIG    1        6.883  -5.919 -20.626  0.00  0.00    +0.090 C 
BRANCH  13  17
ATOM     14  C   LIG    1        4.205  -9.164 -19.889  0.00  0.00    -0.007 A 
ATOM     15  C   LIG    1        5.571  -9.375 -19.859  0.00  0.00    +0.000 A 
ATOM     16  C   LIG    1        6.438  -8.325 -20.098  0.00  0.00    +0.012 A 
ATOM     17  C   LIG    1        5.939  -7.064 -20.367  0.00  0.00    -0.066 A 
ATOM     18  C   LIG    1        4.572  -6.853 -20.396  0.00  0.00    +0.012 A 
ATOM     19  C   LIG    1        3.706  -7.903 -20.156  0.00  0.00    +0.000 A 
ENDBRANCH  13  17
ENDBRANCH  11  13
ENDBRANCH   1  11
BRANCH   6  20
ATOM     20  O   LIG    1        7.089  -2.025 -16.555  0.00  0.00    -0.480 OA
ATOM     21  H   LIG    1        7.717  -1.547 -17.116  0.00  0.00    +0.373 HD
ENDBRANCH   6  20
TORSDOF 5
ENDMDL
MODEL 8
REMARK VINA RESULT:      -5.3      7.603      8.476
REMARK  Name = CHEMBL197115
REMARK                            x       y       z     vdW  Elec       q    Type
REMARK                         _______ _______ _______ _____ _____    ______ ____
ROOT
ATOM      1  C   LIG    1       -0.067  -7.569 -22.525  0.00  0.00    -0.280 A 
ATOM      2  C   LIG    1       -1.214  -7.643 -23.324  0.00  0.00    +0.115 A 
ATOM      3  C   LIG    1       -1.517  -6.617 -24.191  0.00  0.00    -0.119 A 
ATOM      4  C   LIG    1       -0.688  -5.506 -24.273  0.00  0.00    +0.292 A 
ATOM      5  O   LIG    1       -0.991  -4.497 -25.130  0.00  0.00    -0.659 OA
ATOM      6  C   LIG    1        0.457  -5.424 -23.480  0.00  0.00    -0.006 A 
ATOM      7  C   LIG    1        0.765  -6.445 -22.605  0.00  0.00    +0.057 A 
ENDROOT
BRANCH   7   8
ATOM      8  N   LIG    1        1.975  -6.358 -21.757  0.00  0.00    +0.052 N 
ATOM      9  O   LIG    1        3.068  -6.531 -22.244  0.00  0.00    -0.166 OA
ATOM     10  O   LIG    1        1.872  -6.113 -20.578  0.00  0.00    -0.151 OA
ENDBRANCH   7   8
BRANCH   1  11
ATOM     11  C   LIG    1        0.257  -8.662 -21.598  0.00  0.00    +0.398 C 
ATOM     12  O   LIG    1        1.073  -9.502 -21.914  0.00  0.00    -0.468 OA
BRANCH  11  13
ATOM     13  C   LIG    1       -0.425  -8.741 -20.257  0.00  0.00    +0.090 C 
BRANCH  13  17
ATOM     14  C   LIG    1       -3.698 -11.477 -20.482  0.00  0.00    -0.007 A 
ATOM     15  C   LIG    1       -2.600 -11.644 -21.306  0.00  0.00    +0.000 A 
ATOM     16  C   LIG    1       -1.541 -10.758 -21.233  0.00  0.00    +0.012 A 
ATOM     17  C   LIG    1       -1.580  -9.706 -20.337  0.00  0.00    -0.066 A 
ATOM     18  C   LIG    1       -2.678  -9.539 -19.514  0.00  0.00    +0.012 A 
ATOM     19  C   LIG    1       -3.737 -10.425 -19.586  0.00  0.00    +0.000 A 
ENDBRANCH  13  17
ENDBRANCH  11  13
ENDBRANCH   1  11
BRANCH   6  20
ATOM     20  O   LIG    1        1.267  -4.334 -23.565  0.00  0.00    -0.480 OA
ATOM     21  H   LIG    1        1.171  -3.837 -24.390  0.00  0.00    +0.373 HD
ENDBRANCH   6  20
TORSDOF 5
ENDMDL
MODEL 9
REMARK VINA RESULT:      -5.3      9.228     10.610
REMARK  Name = CHEMBL197115
REMARK                            x       y       z     vdW  Elec       q    Type
REMARK                         _______ _______ _______ _____ _____    ______ ____
ROOT
ATOM      1  C   LIG    1        2.750  -9.145 -20.692  0.00  0.00    -0.280 A 
ATOM      2  C   LIG    1        3.383 -10.241 -20.095  0.00  0.00    +0.115 A 
ATOM      3  C   LIG    1        4.544 -10.060 -19.378  0.00  0.00    -0.119 A 
ATOM      4  C   LIG    1        5.092  -8.789 -19.247  0.00  0.00    +0.292 A 
ATOM      5  O   LIG    1        6.237  -8.616 -18.539  0.00  0.00    -0.659 OA
ATOM      6  C   LIG    1        4.467  -7.691 -19.839  0.00  0.00    -0.006 A 
ATOM      7  C   LIG    1        3.306  -7.866 -20.564  0.00  0.00    +0.057 A 
ENDROOT
BRANCH   7   8
ATOM      8  N   LIG    1        2.645  -6.703 -21.199  0.00  0.00    +0.052 N 
ATOM      9  O   LIG    1        1.831  -6.059 -20.580  0.00  0.00    -0.166 OA
ATOM     10  O   LIG    1        2.919  -6.398 -22.336  0.00  0.00    -0.151 OA
ENDBRANCH   7   8
BRANCH   1  11
ATOM     11  C   LIG    1        1.511  -9.337 -21.458  0.00  0.00    +0.398 C 
ATOM     12  O   LIG    1        1.562  -9.729 -22.604  0.00  0.00    -0.468 OA
BRANCH  11  13
ATOM     13  C   LIG    1        0.178  -9.047 -20.819  0.00  0.00    +0.090 C 
BRANCH  13  17
ATOM     14  C   LIG    1       -2.633  -7.928 -23.835  0.00  0.00    -0.007 A 
ATOM     15  C   LIG    1       -2.801  -9.111 -23.138  0.00  0.00    +0.000 A 
ATOM     16  C   LIG    1       -1.891  -9.472 -22.162  0.00  0.00    +0.012 A 
ATOM     17  C   LIG    1       -0.814  -8.653 -21.883  0.00  0.00    -0.066 A 
ATOM     18  C   LIG    1       -0.646  -7.470 -22.581  0.00  0.00    +0.012 A 
ATOM     19  C   LIG    1       -1.556  -7.108 -23.555  0.00  0.00    +0.000 A 
ENDBRANCH  13  17
ENDBRANCH  11  13
ENDBRANCH   1  11
BRANCH   6  20
ATOM     20  O   LIG    1        5.006  -6.449 -19.707  0.00  0.00    -0.480 OA
ATOM     21  H   LIG    1        4.465  -5.840 -19.184  0.00  0.00    +0.373 HD
ENDBRANCH   6  20
TORSDOF 5
ENDMDL
