MODEL 1
REMARK VINA RESULT:      -7.1      0.000      0.000
REMARK  Name = CHEMBL169033
REMARK                            x       y       z     vdW  Elec       q    Type
REMARK                         _______ _______ _______ _____ _____    ______ ____
ROOT
ATOM      1  C   LIG    1       -7.044  -2.291 -19.073  0.00  0.00    -0.163 A 
ATOM      2  C   LIG    1       -5.745  -2.075 -19.548  0.00  0.00    +0.176 A 
ATOM      3  C   LIG    1       -5.105  -0.885 -19.285  0.00  0.00    -0.078 A 
ATOM      4  C   LIG    1       -5.745   0.104 -18.549  0.00  0.00    +0.183 A 
ATOM      5  C   LIG    1       -7.040  -0.104 -18.071  0.00  0.00    +0.074 A 
ATOM      6  C   LIG    1       -7.691  -1.292 -18.334  0.00  0.00    +0.129 A 
ENDROOT
BRANCH   1   8
ATOM      7  C   LIG    1       -8.017  -3.965 -20.775  0.00  0.00    +0.091 C 
ATOM      8  C   LIG    1       -7.729  -3.560 -19.352  0.00  0.00    +0.397 C 
ATOM      9  O   LIG    1       -8.064  -4.284 -18.437  0.00  0.00    -0.438 OA
ENDBRANCH   1   8
BRANCH   3  10
ATOM     10  N   LIG    1       -3.732  -0.658 -19.788  0.00  0.00    +0.034 N 
ATOM     11  O   LIG    1       -2.825  -1.361 -19.408  0.00  0.00    -0.129 OA
ATOM     12  O   LIG    1       -3.518   0.231 -20.579  0.00  0.00    -0.156 OA
ENDBRANCH   3  10
BRANCH   4  13
ATOM     13  O   LIG    1       -5.111   1.276 -18.292  0.00  0.00    -0.459 OA
ATOM     14  H   LIG    1       -4.235   1.346 -18.698  0.00  0.00    +0.409 HD
ENDBRANCH   4  13
BRANCH   5  15
ATOM     15  O   LIG    1       -7.662   0.866 -17.350  0.00  0.00    -0.470 OA
ATOM     16  H   LIG    1       -7.546   1.758 -17.708  0.00  0.00    +0.399 HD
ENDBRANCH   5  15
TORSDOF 4
ENDMDL
MODEL 2
REMARK VINA RESULT:      -6.6      2.272      4.852
REMARK  Name = CHEMBL169033
REMARK                            x       y       z     vdW  Elec       q    Type
REMARK                         _______ _______ _______ _____ _____    ______ ____
ROOT
ATOM      1  C   LIG    1       -4.246   0.089 -20.141  0.00  0.00    -0.163 A 
ATOM      2  C   LIG    1       -4.860   0.732 -19.059  0.00  0.00    +0.176 A 
ATOM      3  C   LIG    1       -5.874   0.105 -18.371  0.00  0.00    -0.078 A 
ATOM      4  C   LIG    1       -6.290  -1.166 -18.747  0.00  0.00    +0.183 A 
ATOM      5  C   LIG    1       -5.683  -1.813 -19.824  0.00  0.00    +0.074 A 
ATOM      6  C   LIG    1       -4.670  -1.190 -20.523  0.00  0.00    +0.129 A 
ENDROOT
BRANCH   1   8
ATOM      7  C   LIG    1       -2.101  -0.062 -21.562  0.00  0.00    +0.091 C 
ATOM      8  C   LIG    1       -3.165   0.757 -20.877  0.00  0.00    +0.397 C 
ATOM      9  O   LIG    1       -3.127   1.968 -20.935  0.00  0.00    -0.438 OA
ENDBRANCH   1   8
BRANCH   3  10
ATOM     10  N   LIG    1       -6.522   0.785 -17.228  0.00  0.00    +0.034 N 
ATOM     11  O   LIG    1       -7.135   1.812 -17.404  0.00  0.00    -0.129 OA
ATOM     12  O   LIG    1       -6.438   0.313 -16.118  0.00  0.00    -0.156 OA
ENDBRANCH   3  10
BRANCH   4  13
ATOM     13  O   LIG    1       -7.290  -1.781 -18.065  0.00  0.00    -0.459 OA
ATOM     14  H   LIG    1       -7.064  -2.667 -17.750  0.00  0.00    +0.409 HD
ENDBRANCH   4  13
BRANCH   5  15
ATOM     15  O   LIG    1       -6.094  -3.058 -20.188  0.00  0.00    -0.470 OA
ATOM     16  H   LIG    1       -5.390  -3.614 -20.549  0.00  0.00    +0.399 HD
ENDBRANCH   5  15
TORSDOF 4
ENDMDL
MODEL 3
REMARK VINA RESULT:      -6.2      8.938     10.910
REMARK  Name = CHEMBL169033
REMARK                            x       y       z     vdW  Elec       q    Type
REMARK                         _______ _______ _______ _____ _____    ______ ____
ROOT
ATOM      1  C   LIG    1       -3.547 -11.689 -19.171  0.00  0.00    -0.163 A 
ATOM      2  C   LIG    1       -4.175 -10.519 -18.726  0.00  0.00    +0.176 A 
ATOM      3  C   LIG    1       -4.821 -10.504 -17.511  0.00  0.00    -0.078 A 
ATOM      4  C   LIG    1       -4.852 -11.648 -16.723  0.00  0.00    +0.183 A 
ATOM      5  C   LIG    1       -4.228 -12.818 -17.159  0.00  0.00    +0.074 A 
ATOM      6  C   LIG    1       -3.582 -12.843 -18.378  0.00  0.00    +0.129 A 
ENDROOT
BRANCH   1   8
ATOM      7  C   LIG    1       -2.562 -10.415 -21.184  0.00  0.00    +0.091 C 
ATOM      8  C   LIG    1       -2.857 -11.708 -20.468  0.00  0.00    +0.397 C 
ATOM      9  O   LIG    1       -2.524 -12.764 -20.963  0.00  0.00    -0.438 OA
ENDBRANCH   1   8
BRANCH   3  10
ATOM     10  N   LIG    1       -5.484  -9.267 -17.042  0.00  0.00    +0.034 N 
ATOM     11  O   LIG    1       -6.546  -9.331 -16.468  0.00  0.00    -0.129 OA
ATOM     12  O   LIG    1       -4.963  -8.193 -17.234  0.00  0.00    -0.156 OA
ENDBRANCH   3  10
BRANCH   4  13
ATOM     13  O   LIG    1       -5.490 -11.629 -15.525  0.00  0.00    -0.459 OA
ATOM     14  H   LIG    1       -5.164 -12.286 -14.895  0.00  0.00    +0.409 HD
ENDBRANCH   4  13
BRANCH   5  15
ATOM     15  O   LIG    1       -4.261 -13.934 -16.384  0.00  0.00    -0.470 OA
ATOM     16  H   LIG    1       -3.802 -14.694 -16.768  0.00  0.00    +0.399 HD
ENDBRANCH   5  15
TORSDOF 4
ENDMDL
MODEL 4
REMARK VINA RESULT:      -6.0      9.119     10.911
REMARK  Name = CHEMBL169033
REMARK                            x       y       z     vdW  Elec       q    Type
REMARK                         _______ _______ _______ _____ _____    ______ ____
ROOT
ATOM      1  C   LIG    1       -3.446 -10.281 -19.051  0.00  0.00    -0.163 A 
ATOM      2  C   LIG    1       -3.347 -11.642 -18.738  0.00  0.00    +0.176 A 
ATOM      3  C   LIG    1       -4.032 -12.151 -17.658  0.00  0.00    -0.078 A 
ATOM      4  C   LIG    1       -4.822 -11.317 -16.877  0.00  0.00    +0.183 A 
ATOM      5  C   LIG    1       -4.925  -9.959 -17.182  0.00  0.00    +0.074 A 
ATOM      6  C   LIG    1       -4.238  -9.440 -18.260  0.00  0.00    +0.129 A 
ENDROOT
BRANCH   1   8
ATOM      7  C   LIG    1       -1.473  -8.911 -19.986  0.00  0.00    +0.091 C 
ATOM      8  C   LIG    1       -2.715  -9.735 -20.203  0.00  0.00    +0.397 C 
ATOM      9  O   LIG    1       -3.112  -9.949 -21.330  0.00  0.00    -0.438 OA
ENDBRANCH   1   8
BRANCH   3  10
ATOM     10  N   LIG    1       -3.927 -13.590 -17.328  0.00  0.00    +0.034 N 
ATOM     11  O   LIG    1       -3.866 -14.410 -18.214  0.00  0.00    -0.129 OA
ATOM     12  O   LIG    1       -3.902 -13.944 -16.173  0.00  0.00    -0.156 OA
ENDBRANCH   3  10
BRANCH   4  13
ATOM     13  O   LIG    1       -5.495 -11.823 -15.812  0.00  0.00    -0.459 OA
ATOM     14  H   LIG    1       -6.350 -11.400 -15.650  0.00  0.00    +0.409 HD
ENDBRANCH   4  13
BRANCH   5  15
ATOM     15  O   LIG    1       -5.700  -9.147 -16.415  0.00  0.00    -0.470 OA
ATOM     16  H   LIG    1       -6.582  -8.988 -16.777  0.00  0.00    +0.399 HD
ENDBRANCH   5  15
TORSDOF 4
ENDMDL
MODEL 5
REMARK VINA RESULT:      -5.5     10.174     11.826
REMARK  Name = CHEMBL169033
REMARK                            x       y       z     vdW  Elec       q    Type
REMARK                         _______ _______ _______ _____ _____    ______ ____
ROOT
ATOM      1  C   LIG    1       -3.375 -13.946 -18.858  0.00  0.00    -0.163 A 
ATOM      2  C   LIG    1       -3.214 -12.784 -19.623  0.00  0.00    +0.176 A 
ATOM      3  C   LIG    1       -3.592 -11.564 -19.110  0.00  0.00    -0.078 A 
ATOM      4  C   LIG    1       -4.134 -11.482 -17.833  0.00  0.00    +0.183 A 
ATOM      5  C   LIG    1       -4.298 -12.635 -17.065  0.00  0.00    +0.074 A 
ATOM      6  C   LIG    1       -3.927 -13.863 -17.574  0.00  0.00    +0.129 A 
ENDROOT
BRANCH   1   8
ATOM      7  C   LIG    1       -1.862 -16.030 -18.750  0.00  0.00    +0.091 C 
ATOM      8  C   LIG    1       -2.973 -15.249 -19.404  0.00  0.00    +0.397 C 
ATOM      9  O   LIG    1       -3.536 -15.698 -20.381  0.00  0.00    -0.438 OA
ENDBRANCH   1   8
BRANCH   3  10
ATOM     10  N   LIG    1       -3.420 -10.337 -19.919  0.00  0.00    +0.034 N 
ATOM     11  O   LIG    1       -2.773  -9.412 -19.486  0.00  0.00    -0.129 OA
ATOM     12  O   LIG    1       -3.927 -10.260 -21.014  0.00  0.00    -0.156 OA
ENDBRANCH   3  10
BRANCH   4  13
ATOM     13  O   LIG    1       -4.505 -10.276 -17.332  0.00  0.00    -0.459 OA
ATOM     14  H   LIG    1       -5.372  -9.974 -17.636  0.00  0.00    +0.409 HD
ENDBRANCH   4  13
BRANCH   5  15
ATOM     15  O   LIG    1       -4.829 -12.549 -15.816  0.00  0.00    -0.470 OA
ATOM     16  H   LIG    1       -5.227 -13.371 -15.500  0.00  0.00    +0.399 HD
ENDBRANCH   5  15
TORSDOF 4
ENDMDL
MODEL 6
REMARK VINA RESULT:      -5.4      2.173      3.011
REMARK  Name = CHEMBL169033
REMARK                            x       y       z     vdW  Elec       q    Type
REMARK                         _______ _______ _______ _____ _____    ______ ____
ROOT
ATOM      1  C   LIG    1       -5.491  -1.010 -19.781  0.00  0.00    -0.163 A 
ATOM      2  C   LIG    1       -4.924  -1.137 -21.055  0.00  0.00    +0.176 A 
ATOM      3  C   LIG    1       -4.072  -0.165 -21.528  0.00  0.00    -0.078 A 
ATOM      4  C   LIG    1       -3.773   0.943 -20.744  0.00  0.00    +0.183 A 
ATOM      5  C   LIG    1       -4.334   1.076 -19.474  0.00  0.00    +0.074 A 
ATOM      6  C   LIG    1       -5.193   0.108 -18.994  0.00  0.00    +0.129 A 
ENDROOT
BRANCH   1   8
ATOM      7  C   LIG    1       -6.154  -3.495 -19.606  0.00  0.00    +0.091 C 
ATOM      8  C   LIG    1       -6.402  -2.046 -19.274  0.00  0.00    +0.397 C 
ATOM      9  O   LIG    1       -7.353  -1.735 -18.588  0.00  0.00    -0.438 OA
ENDBRANCH   1   8
BRANCH   3  10
ATOM     10  N   LIG    1       -3.473  -0.299 -22.875  0.00  0.00    +0.034 N 
ATOM     11  O   LIG    1       -2.314  -0.006 -23.053  0.00  0.00    -0.129 OA
ATOM     12  O   LIG    1       -4.144  -0.703 -23.796  0.00  0.00    -0.156 OA
ENDBRANCH   3  10
BRANCH   4  13
ATOM     13  O   LIG    1       -2.932   1.899 -21.215  0.00  0.00    -0.459 OA
ATOM     14  H   LIG    1       -2.785   2.631 -20.601  0.00  0.00    +0.409 HD
ENDBRANCH   4  13
BRANCH   5  15
ATOM     15  O   LIG    1       -4.037   2.161 -18.710  0.00  0.00    -0.470 OA
ATOM     16  H   LIG    1       -4.621   2.918 -18.859  0.00  0.00    +0.399 HD
ENDBRANCH   5  15
TORSDOF 4
ENDMDL
MODEL 7
REMARK VINA RESULT:      -5.2     10.395     12.402
REMARK  Name = CHEMBL169033
REMARK                            x       y       z     vdW  Elec       q    Type
REMARK                         _______ _______ _______ _____ _____    ______ ____
ROOT
ATOM      1  C   LIG    1       -3.465 -11.463 -19.296  0.00  0.00    -0.163 A 
ATOM      2  C   LIG    1       -3.148 -12.767 -19.695  0.00  0.00    +0.176 A 
ATOM      3  C   LIG    1       -3.416 -13.827 -18.858  0.00  0.00    -0.078 A 
ATOM      4  C   LIG    1       -4.001 -13.606 -17.617  0.00  0.00    +0.183 A 
ATOM      5  C   LIG    1       -4.319 -12.309 -17.213  0.00  0.00    +0.074 A 
ATOM      6  C   LIG    1       -4.050 -11.241 -18.043  0.00  0.00    +0.129 A 
ENDROOT
BRANCH   1   8
ATOM      7  C   LIG    1       -2.083  -9.356 -19.839  0.00  0.00    +0.091 C 
ATOM      8  C   LIG    1       -3.179 -10.330 -20.186  0.00  0.00    +0.397 C 
ATOM      9  O   LIG    1       -3.825 -10.179 -21.202  0.00  0.00    -0.438 OA
ENDBRANCH   1   8
BRANCH   3  10
ATOM     10  N   LIG    1       -3.081 -15.205 -19.281  0.00  0.00    +0.034 N 
ATOM     11  O   LIG    1       -2.394 -15.904 -18.574  0.00  0.00    -0.129 OA
ATOM     12  O   LIG    1       -3.495 -15.631 -20.334  0.00  0.00    -0.156 OA
ENDBRANCH   3  10
BRANCH   4  13
ATOM     13  O   LIG    1       -4.264 -14.654 -16.796  0.00  0.00    -0.459 OA
ATOM     14  H   LIG    1       -5.124 -15.068 -16.949  0.00  0.00    +0.409 HD
ENDBRANCH   4  13
BRANCH   5  15
ATOM     15  O   LIG    1       -4.892 -12.098 -15.998  0.00  0.00    -0.470 OA
ATOM     16  H   LIG    1       -5.726 -12.572 -15.868  0.00  0.00    +0.399 HD
ENDBRANCH   5  15
TORSDOF 4
ENDMDL
MODEL 8
REMARK VINA RESULT:      -5.0      9.207     11.067
REMARK  Name = CHEMBL169033
REMARK                            x       y       z     vdW  Elec       q    Type
REMARK                         _______ _______ _______ _____ _____    ______ ____
ROOT
ATOM      1  C   LIG    1       -3.690 -12.793 -18.634  0.00  0.00    -0.163 A 
ATOM      2  C   LIG    1       -4.513 -12.385 -17.578  0.00  0.00    +0.176 A 
ATOM      3  C   LIG    1       -4.744 -11.045 -17.364  0.00  0.00    -0.078 A 
ATOM      4  C   LIG    1       -4.163 -10.095 -18.194  0.00  0.00    +0.183 A 
ATOM      5  C   LIG    1       -3.342 -10.494 -19.250  0.00  0.00    +0.074 A 
ATOM      6  C   LIG    1       -3.101 -11.835 -19.469  0.00  0.00    +0.129 A 
ENDROOT
BRANCH   1   8
ATOM      7  C   LIG    1       -3.182 -14.728 -20.261  0.00  0.00    +0.091 C 
ATOM      8  C   LIG    1       -3.442 -14.223 -18.865  0.00  0.00    +0.397 C 
ATOM      9  O   LIG    1       -3.445 -14.998 -17.931  0.00  0.00    -0.438 OA
ENDBRANCH   1   8
BRANCH   3  10
ATOM     10  N   LIG    1       -5.614 -10.615 -16.246  0.00  0.00    +0.034 N 
ATOM     11  O   LIG    1       -5.656 -11.265 -15.228  0.00  0.00    -0.129 OA
ATOM     12  O   LIG    1       -6.281  -9.612 -16.352  0.00  0.00    -0.156 OA
ENDBRANCH   3  10
BRANCH   4  13
ATOM     13  O   LIG    1       -4.393  -8.775 -17.979  0.00  0.00    -0.459 OA
ATOM     14  H   LIG    1       -4.642  -8.285 -18.775  0.00  0.00    +0.409 HD
ENDBRANCH   4  13
BRANCH   5  15
ATOM     15  O   LIG    1       -2.776  -9.561 -20.060  0.00  0.00    -0.470 OA
ATOM     16  H   LIG    1       -1.825  -9.445 -19.923  0.00  0.00    +0.399 HD
ENDBRANCH   5  15
TORSDOF 4
ENDMDL
MODEL 9
REMARK VINA RESULT:      -4.9     13.504     14.259
REMARK  Name = CHEMBL169033
REMARK                            x       y       z     vdW  Elec       q    Type
REMARK                         _______ _______ _______ _____ _____    ______ ____
ROOT
ATOM      1  C   LIG    1        7.601  -2.261 -17.519  0.00  0.00    -0.163 A 
ATOM      2  C   LIG    1        7.579  -3.344 -18.407  0.00  0.00    +0.176 A 
ATOM      3  C   LIG    1        7.115  -4.569 -17.986  0.00  0.00    -0.078 A 
ATOM      4  C   LIG    1        6.668  -4.736 -16.682  0.00  0.00    +0.183 A 
ATOM      5  C   LIG    1        6.687  -3.662 -15.791  0.00  0.00    +0.074 A 
ATOM      6  C   LIG    1        7.155  -2.431 -16.203  0.00  0.00    +0.129 A 
ENDROOT
BRANCH   1   8
ATOM      7  C   LIG    1        8.855  -0.067 -17.010  0.00  0.00    +0.091 C 
ATOM      8  C   LIG    1        8.096  -0.952 -17.965  0.00  0.00    +0.397 C 
ATOM      9  O   LIG    1        7.894  -0.583 -19.103  0.00  0.00    -0.438 OA
ENDBRANCH   1   8
BRANCH   3  10
ATOM     10  N   LIG    1        7.093  -5.713 -18.926  0.00  0.00    +0.034 N 
ATOM     11  O   LIG    1        8.127  -6.141 -19.382  0.00  0.00    -0.129 OA
ATOM     12  O   LIG    1        6.040  -6.218 -19.236  0.00  0.00    -0.156 OA
ENDBRANCH   3  10
BRANCH   4  13
ATOM     13  O   LIG    1        6.212  -5.947 -16.271  0.00  0.00    -0.459 OA
ATOM     14  H   LIG    1        5.457  -5.899 -15.669  0.00  0.00    +0.409 HD
ENDBRANCH   4  13
BRANCH   5  15
ATOM     15  O   LIG    1        6.247  -3.831 -14.515  0.00  0.00    -0.470 OA
ATOM     16  H   LIG    1        5.674  -3.119 -14.199  0.00  0.00    +0.399 HD
ENDBRANCH   5  15
TORSDOF 4
ENDMDL
