MODEL 1
REMARK VINA RESULT:      -7.5      0.000      0.000
REMARK  Name = CHEMBL168600
REMARK                            x       y       z     vdW  Elec       q    Type
REMARK                         _______ _______ _______ _____ _____    ______ ____
ROOT
ATOM      1  C   LIG    1       -1.879 -10.126 -20.343  0.00  0.00    -0.088 C 
ATOM      2  C   LIG    1       -2.743 -11.156 -20.201  0.00  0.00    +0.146 C 
ENDROOT
BRANCH   2   3
ATOM      3  C   LIG    1       -3.514 -11.303 -18.959  0.00  0.00    -0.069 A 
ATOM      4  C   LIG    1       -4.250 -10.223 -18.456  0.00  0.00    +0.144 A 
ATOM      5  C   LIG    1       -4.971 -10.363 -17.293  0.00  0.00    -0.067 A 
ATOM      6  C   LIG    1       -4.972 -11.575 -16.614  0.00  0.00    +0.165 A 
ATOM      7  C   LIG    1       -4.243 -12.656 -17.107  0.00  0.00    +0.086 A 
ATOM      8  C   LIG    1       -3.521 -12.526 -18.277  0.00  0.00    +0.093 A 
BRANCH   5   9
ATOM      9  N   LIG    1       -5.747  -9.221 -16.763  0.00  0.00    +0.034 N 
ATOM     10  O   LIG    1       -6.827  -9.407 -16.251  0.00  0.00    -0.129 OA
ATOM     11  O   LIG    1       -5.303  -8.099 -16.841  0.00  0.00    -0.157 OA
ENDBRANCH   5   9
BRANCH   6  12
ATOM     12  O   LIG    1       -5.686 -11.708 -15.467  0.00  0.00    -0.459 OA
ATOM     13  H   LIG    1       -5.478 -12.507 -14.964  0.00  0.00    +0.407 HD
ENDBRANCH   6  12
BRANCH   7  14
ATOM     14  O   LIG    1       -4.246 -13.841 -16.439  0.00  0.00    -0.471 OA
ATOM     15  H   LIG    1       -3.889 -13.788 -15.543  0.00  0.00    +0.399 HD
ENDBRANCH   7  14
ENDBRANCH   2   3
BRANCH   1  16
ATOM     16  C   LIG    1       -1.135  -9.984 -21.541  0.00  0.00    +0.426 C 
ATOM     17  O   LIG    1       -0.892 -10.962 -22.227  0.00  0.00    -0.446 OA
BRANCH  16  20
ATOM     18  C   LIG    1       -0.771  -6.769 -23.453  0.00  0.00    +0.140 A 
ATOM     19  C   LIG    1       -1.223  -8.017 -23.066  0.00  0.00    -0.026 A 
ATOM     20  C   LIG    1       -0.653  -8.652 -21.958  0.00  0.00    -0.090 A 
ATOM     21  C   LIG    1        0.372  -8.023 -21.247  0.00  0.00    -0.049 A 
ATOM     22  C   LIG    1        0.820  -6.776 -21.639  0.00  0.00    +0.139 A 
ATOM     23  C   LIG    1        0.254  -6.148 -22.745  0.00  0.00    +0.061 A 
BRANCH  18  25
ATOM     24  C   LIG    1       -2.536  -6.707 -25.046  0.00  0.00    +0.249 C 
ATOM     25  O   LIG    1       -1.325  -6.151 -24.530  0.00  0.00    -0.299 OA
ENDBRANCH  18  25
BRANCH  22  26
ATOM     26  O   LIG    1        1.818  -6.164 -20.946  0.00  0.00    -0.299 OA
ATOM     27  C   LIG    1        3.092  -6.810 -20.936  0.00  0.00    +0.245 C 
ENDBRANCH  22  26
BRANCH  23  28
ATOM     28  O   LIG    1        0.700  -4.923 -23.131  0.00  0.00    -0.312 OA
ATOM     29  C   LIG    1        1.767  -4.890 -24.080  0.00  0.00    +0.226 C 
ENDBRANCH  23  28
ENDBRANCH  16  20
ENDBRANCH   1  16
TORSDOF 9
ENDMDL
MODEL 2
REMARK VINA RESULT:      -7.5      0.198      2.542
REMARK  Name = CHEMBL168600
REMARK                            x       y       z     vdW  Elec       q    Type
REMARK                         _______ _______ _______ _____ _____    ______ ____
ROOT
ATOM      1  C   LIG    1       -2.179 -10.002 -20.524  0.00  0.00    -0.088 C 
ATOM      2  C   LIG    1       -2.746 -11.190 -20.216  0.00  0.00    +0.146 C 
ENDROOT
BRANCH   2   3
ATOM      3  C   LIG    1       -3.507 -11.339 -18.967  0.00  0.00    -0.069 A 
ATOM      4  C   LIG    1       -4.231 -10.257 -18.452  0.00  0.00    +0.144 A 
ATOM      5  C   LIG    1       -4.943 -10.400 -17.283  0.00  0.00    -0.067 A 
ATOM      6  C   LIG    1       -4.945 -11.616 -16.612  0.00  0.00    +0.165 A 
ATOM      7  C   LIG    1       -4.227 -12.699 -17.117  0.00  0.00    +0.086 A 
ATOM      8  C   LIG    1       -3.515 -12.566 -18.293  0.00  0.00    +0.093 A 
BRANCH   5   9
ATOM      9  N   LIG    1       -5.707  -9.256 -16.740  0.00  0.00    +0.034 N 
ATOM     10  O   LIG    1       -5.252  -8.138 -16.806  0.00  0.00    -0.129 OA
ATOM     11  O   LIG    1       -6.788  -9.438 -16.228  0.00  0.00    -0.157 OA
ENDBRANCH   5   9
BRANCH   6  12
ATOM     12  O   LIG    1       -5.650 -11.752 -15.458  0.00  0.00    -0.459 OA
ATOM     13  H   LIG    1       -5.111 -11.989 -14.693  0.00  0.00    +0.407 HD
ENDBRANCH   6  12
BRANCH   7  14
ATOM     14  O   LIG    1       -4.232 -13.887 -16.456  0.00  0.00    -0.471 OA
ATOM     15  H   LIG    1       -3.971 -14.641 -17.001  0.00  0.00    +0.399 HD
ENDBRANCH   7  14
ENDBRANCH   2   3
BRANCH   1  16
ATOM     16  C   LIG    1       -1.445  -9.857 -21.729  0.00  0.00    +0.426 C 
ATOM     17  O   LIG    1       -1.278 -10.818 -22.459  0.00  0.00    -0.446 OA
BRANCH  16  20
ATOM     18  C   LIG    1        0.680  -6.757 -21.687  0.00  0.00    +0.140 A 
ATOM     19  C   LIG    1        0.153  -7.988 -21.339  0.00  0.00    -0.026 A 
ATOM     20  C   LIG    1       -0.882  -8.543 -22.097  0.00  0.00    -0.090 A 
ATOM     21  C   LIG    1       -1.382  -7.852 -23.203  0.00  0.00    -0.049 A 
ATOM     22  C   LIG    1       -0.852  -6.622 -23.546  0.00  0.00    +0.139 A 
ATOM     23  C   LIG    1        0.175  -6.069 -22.786  0.00  0.00    +0.061 A 
BRANCH  18  25
ATOM     24  C   LIG    1        2.966  -6.848 -21.038  0.00  0.00    +0.249 C 
ATOM     25  O   LIG    1        1.687  -6.217 -20.950  0.00  0.00    -0.299 OA
ENDBRANCH  18  25
BRANCH  22  26
ATOM     26  O   LIG    1       -1.340  -5.950 -24.624  0.00  0.00    -0.299 OA
ATOM     27  C   LIG    1       -2.398  -6.573 -25.354  0.00  0.00    +0.245 C 
ENDBRANCH  22  26
BRANCH  23  28
ATOM     28  O   LIG    1        0.691  -4.857 -23.123  0.00  0.00    -0.312 OA
ATOM     29  C   LIG    1        1.757  -4.847 -24.073  0.00  0.00    +0.226 C 
ENDBRANCH  23  28
ENDBRANCH  16  20
ENDBRANCH   1  16
TORSDOF 9
ENDMDL
MODEL 3
REMARK VINA RESULT:      -7.2      7.265      8.714
REMARK  Name = CHEMBL168600
REMARK                            x       y       z     vdW  Elec       q    Type
REMARK                         _______ _______ _______ _____ _____    ______ ____
ROOT
ATOM      1  C   LIG    1       -5.277  -1.333 -20.295  0.00  0.00    -0.088 C 
ATOM      2  C   LIG    1       -5.281  -2.604 -19.835  0.00  0.00    +0.146 C 
ENDROOT
BRANCH   2   3
ATOM      3  C   LIG    1       -6.514  -3.403 -19.894  0.00  0.00    -0.069 A 
ATOM      4  C   LIG    1       -6.835  -4.278 -18.849  0.00  0.00    +0.144 A 
ATOM      5  C   LIG    1       -7.989  -5.025 -18.907  0.00  0.00    -0.067 A 
ATOM      6  C   LIG    1       -8.838  -4.913 -20.000  0.00  0.00    +0.165 A 
ATOM      7  C   LIG    1       -8.526  -4.045 -21.046  0.00  0.00    +0.086 A 
ATOM      8  C   LIG    1       -7.373  -3.288 -20.993  0.00  0.00    +0.093 A 
BRANCH   5   9
ATOM      9  N   LIG    1       -8.327  -5.949 -17.802  0.00  0.00    +0.034 N 
ATOM     10  O   LIG    1       -9.226  -5.679 -17.040  0.00  0.00    -0.129 OA
ATOM     11  O   LIG    1       -7.704  -6.976 -17.660  0.00  0.00    -0.157 OA
ENDBRANCH   5   9
BRANCH   6  12
ATOM     12  O   LIG    1       -9.977  -5.652 -20.052  0.00  0.00    -0.459 OA
ATOM     13  H   LIG    1       -9.844  -6.594 -19.878  0.00  0.00    +0.407 HD
ENDBRANCH   6  12
BRANCH   7  14
ATOM     14  O   LIG    1       -9.360  -3.940 -22.115  0.00  0.00    -0.471 OA
ATOM     15  H   LIG    1       -9.285  -4.669 -22.745  0.00  0.00    +0.399 HD
ENDBRANCH   7  14
ENDBRANCH   2   3
BRANCH   1  16
ATOM     16  C   LIG    1       -4.088  -0.562 -20.238  0.00  0.00    +0.426 C 
ATOM     17  O   LIG    1       -3.564  -0.330 -19.163  0.00  0.00    -0.446 OA
BRANCH  16  20
ATOM     18  C   LIG    1       -1.796   1.270 -22.586  0.00  0.00    +0.140 A 
ATOM     19  C   LIG    1       -2.358   0.783 -21.421  0.00  0.00    -0.026 A 
ATOM     20  C   LIG    1       -3.487  -0.040 -21.481  0.00  0.00    -0.090 A 
ATOM     21  C   LIG    1       -4.044  -0.366 -22.720  0.00  0.00    -0.049 A 
ATOM     22  C   LIG    1       -3.478   0.124 -23.882  0.00  0.00    +0.139 A 
ATOM     23  C   LIG    1       -2.357   0.947 -23.818  0.00  0.00    +0.061 A 
BRANCH  18  25
ATOM     24  C   LIG    1        0.573   1.442 -22.711  0.00  0.00    +0.249 C 
ATOM     25  O   LIG    1       -0.697   2.069 -22.527  0.00  0.00    -0.299 OA
ENDBRANCH  18  25
BRANCH  22  26
ATOM     26  O   LIG    1       -4.021  -0.194 -25.088  0.00  0.00    -0.299 OA
ATOM     27  C   LIG    1       -5.376  -0.646 -25.091  0.00  0.00    +0.245 C 
ENDBRANCH  22  26
BRANCH  23  28
ATOM     28  O   LIG    1       -1.805   1.431 -24.962  0.00  0.00    -0.312 OA
ATOM     29  C   LIG    1       -2.285   2.692 -25.432  0.00  0.00    +0.226 C 
ENDBRANCH  23  28
ENDBRANCH  16  20
ENDBRANCH   1  16
TORSDOF 9
ENDMDL
MODEL 4
REMARK VINA RESULT:      -7.2      2.015      4.034
REMARK  Name = CHEMBL168600
REMARK                            x       y       z     vdW  Elec       q    Type
REMARK                         _______ _______ _______ _____ _____    ______ ____
ROOT
ATOM      1  C   LIG    1       -1.595  -9.179 -20.019  0.00  0.00    -0.088 C 
ATOM      2  C   LIG    1       -2.824  -9.722 -20.173  0.00  0.00    +0.146 C 
ENDROOT
BRANCH   2   3
ATOM      3  C   LIG    1       -3.528 -10.287 -19.013  0.00  0.00    -0.069 A 
ATOM      4  C   LIG    1       -3.407 -11.649 -18.712  0.00  0.00    +0.144 A 
ATOM      5  C   LIG    1       -4.067 -12.175 -17.625  0.00  0.00    -0.067 A 
ATOM      6  C   LIG    1       -4.855 -11.358 -16.825  0.00  0.00    +0.165 A 
ATOM      7  C   LIG    1       -4.982 -10.001 -17.117  0.00  0.00    +0.086 A 
ATOM      8  C   LIG    1       -4.318  -9.463 -18.202  0.00  0.00    +0.093 A 
BRANCH   5   9
ATOM      9  N   LIG    1       -3.938 -13.615 -17.309  0.00  0.00    +0.034 N 
ATOM     10  O   LIG    1       -3.871 -14.427 -18.202  0.00  0.00    -0.129 OA
ATOM     11  O   LIG    1       -3.900 -13.980 -16.157  0.00  0.00    -0.157 OA
ENDBRANCH   5   9
BRANCH   6  12
ATOM     12  O   LIG    1       -5.504 -11.883 -15.753  0.00  0.00    -0.459 OA
ATOM     13  H   LIG    1       -6.291 -11.388 -15.488  0.00  0.00    +0.407 HD
ENDBRANCH   6  12
BRANCH   7  14
ATOM     14  O   LIG    1       -5.755  -9.204 -16.330  0.00  0.00    -0.471 OA
ATOM     15  H   LIG    1       -6.437  -9.681 -15.839  0.00  0.00    +0.399 HD
ENDBRANCH   7  14
ENDBRANCH   2   3
BRANCH   1  16
ATOM     16  C   LIG    1       -0.916  -8.634 -21.138  0.00  0.00    +0.426 C 
ATOM     17  O   LIG    1       -1.529  -8.384 -22.160  0.00  0.00    -0.446 OA
BRANCH  16  20
ATOM     18  C   LIG    1        2.741  -9.043 -20.372  0.00  0.00    +0.140 A 
ATOM     19  C   LIG    1        1.382  -9.291 -20.439  0.00  0.00    -0.026 A 
ATOM     20  C   LIG    1        0.535  -8.371 -21.064  0.00  0.00    -0.090 A 
ATOM     21  C   LIG    1        1.065  -7.203 -21.618  0.00  0.00    -0.049 A 
ATOM     22  C   LIG    1        2.423  -6.960 -21.548  0.00  0.00    +0.139 A 
ATOM     23  C   LIG    1        3.264  -7.876 -20.920  0.00  0.00    +0.061 A 
BRANCH  18  25
ATOM     24  C   LIG    1        4.029 -11.035 -20.556  0.00  0.00    +0.249 C 
ATOM     25  O   LIG    1        3.565  -9.939 -19.765  0.00  0.00    -0.299 OA
ENDBRANCH  18  25
BRANCH  22  26
ATOM     26  O   LIG    1        2.939  -5.822 -22.087  0.00  0.00    -0.299 OA
ATOM     27  C   LIG    1        2.932  -5.719 -23.512  0.00  0.00    +0.245 C 
ENDBRANCH  22  26
BRANCH  23  28
ATOM     28  O   LIG    1        4.600  -7.632 -20.849  0.00  0.00    -0.312 OA
ATOM     29  C   LIG    1        5.077  -6.969 -19.677  0.00  0.00    +0.226 C 
ENDBRANCH  23  28
ENDBRANCH  16  20
ENDBRANCH   1  16
TORSDOF 9
ENDMDL
MODEL 5
REMARK VINA RESULT:      -7.2      7.649      9.174
REMARK  Name = CHEMBL168600
REMARK                            x       y       z     vdW  Elec       q    Type
REMARK                         _______ _______ _______ _____ _____    ______ ____
ROOT
ATOM      1  C   LIG    1       -3.457   0.568 -21.194  0.00  0.00    -0.088 C 
ATOM      2  C   LIG    1       -3.704  -0.625 -20.608  0.00  0.00    +0.146 C 
ENDROOT
BRANCH   2   3
ATOM      3  C   LIG    1       -4.914  -0.807 -19.794  0.00  0.00    -0.069 A 
ATOM      4  C   LIG    1       -5.197   0.080 -18.748  0.00  0.00    +0.144 A 
ATOM      5  C   LIG    1       -6.331  -0.093 -17.987  0.00  0.00    -0.067 A 
ATOM      6  C   LIG    1       -7.197  -1.145 -18.255  0.00  0.00    +0.165 A 
ATOM      7  C   LIG    1       -6.924  -2.033 -19.295  0.00  0.00    +0.086 A 
ATOM      8  C   LIG    1       -5.791  -1.864 -20.066  0.00  0.00    +0.093 A 
BRANCH   5   9
ATOM      9  N   LIG    1       -6.628   0.844 -16.882  0.00  0.00    +0.034 N 
ATOM     10  O   LIG    1       -7.084   1.938 -17.121  0.00  0.00    -0.129 OA
ATOM     11  O   LIG    1       -6.415   0.517 -15.737  0.00  0.00    -0.157 OA
ENDBRANCH   5   9
BRANCH   6  12
ATOM     12  O   LIG    1       -8.315  -1.310 -17.501  0.00  0.00    -0.459 OA
ATOM     13  H   LIG    1       -8.689  -0.485 -17.164  0.00  0.00    +0.407 HD
ENDBRANCH   6  12
BRANCH   7  14
ATOM     14  O   LIG    1       -7.775  -3.062 -19.552  0.00  0.00    -0.471 OA
ATOM     15  H   LIG    1       -8.594  -2.794 -19.988  0.00  0.00    +0.399 HD
ENDBRANCH   7  14
ENDBRANCH   2   3
BRANCH   1  16
ATOM     16  C   LIG    1       -2.289   0.744 -21.979  0.00  0.00    +0.426 C 
ATOM     17  O   LIG    1       -1.424   1.522 -21.619  0.00  0.00    -0.446 OA
BRANCH  16  20
ATOM     18  C   LIG    1       -3.007  -0.786 -25.337  0.00  0.00    +0.140 A 
ATOM     19  C   LIG    1       -3.166  -0.074 -24.162  0.00  0.00    -0.026 A 
ATOM     20  C   LIG    1       -2.122  -0.017 -23.234  0.00  0.00    -0.090 A 
ATOM     21  C   LIG    1       -0.922  -0.681 -23.497  0.00  0.00    -0.049 A 
ATOM     22  C   LIG    1       -0.768  -1.391 -24.672  0.00  0.00    +0.139 A 
ATOM     23  C   LIG    1       -1.811  -1.451 -25.592  0.00  0.00    +0.061 A 
BRANCH  18  25
ATOM     24  C   LIG    1       -5.173  -1.608 -25.876  0.00  0.00    +0.249 C 
ATOM     25  O   LIG    1       -4.023  -0.841 -26.239  0.00  0.00    -0.299 OA
ENDBRANCH  18  25
BRANCH  22  26
ATOM     26  O   LIG    1        0.402  -2.037 -24.928  0.00  0.00    -0.299 OA
ATOM     27  C   LIG    1        0.649  -3.243 -24.203  0.00  0.00    +0.245 C 
ENDBRANCH  22  26
BRANCH  23  28
ATOM     28  O   LIG    1       -1.659  -2.154 -26.745  0.00  0.00    -0.312 OA
ATOM     29  C   LIG    1       -2.054  -3.527 -26.726  0.00  0.00    +0.226 C 
ENDBRANCH  23  28
ENDBRANCH  16  20
ENDBRANCH   1  16
TORSDOF 9
ENDMDL
MODEL 6
REMARK VINA RESULT:      -7.1      1.755      3.083
REMARK  Name = CHEMBL168600
REMARK                            x       y       z     vdW  Elec       q    Type
REMARK                         _______ _______ _______ _____ _____    ______ ____
ROOT
ATOM      1  C   LIG    1       -1.960  -9.214 -20.349  0.00  0.00    -0.088 C 
ATOM      2  C   LIG    1       -3.067  -9.989 -20.384  0.00  0.00    +0.146 C 
ENDROOT
BRANCH   2   3
ATOM      3  C   LIG    1       -3.626 -10.527 -19.135  0.00  0.00    -0.069 A 
ATOM      4  C   LIG    1       -3.460 -11.881 -18.817  0.00  0.00    +0.144 A 
ATOM      5  C   LIG    1       -3.985 -12.382 -17.648  0.00  0.00    -0.067 A 
ATOM      6  C   LIG    1       -4.680 -11.548 -16.781  0.00  0.00    +0.165 A 
ATOM      7  C   LIG    1       -4.851 -10.199 -17.090  0.00  0.00    +0.086 A 
ATOM      8  C   LIG    1       -4.322  -9.687 -18.259  0.00  0.00    +0.093 A 
BRANCH   5   9
ATOM      9  N   LIG    1       -3.808 -13.812 -17.313  0.00  0.00    +0.034 N 
ATOM     10  O   LIG    1       -3.774 -14.163 -16.156  0.00  0.00    -0.129 OA
ATOM     11  O   LIG    1       -3.699 -14.631 -18.195  0.00  0.00    -0.157 OA
ENDBRANCH   5   9
BRANCH   6  12
ATOM     12  O   LIG    1       -5.195 -12.048 -15.628  0.00  0.00    -0.459 OA
ATOM     13  H   LIG    1       -4.956 -11.544 -14.839  0.00  0.00    +0.407 HD
ENDBRANCH   6  12
BRANCH   7  14
ATOM     14  O   LIG    1       -5.532  -9.387 -16.239  0.00  0.00    -0.471 OA
ATOM     15  H   LIG    1       -6.059  -8.708 -16.681  0.00  0.00    +0.399 HD
ENDBRANCH   7  14
ENDBRANCH   2   3
BRANCH   1  16
ATOM     16  C   LIG    1       -1.420  -8.695 -21.553  0.00  0.00    +0.426 C 
ATOM     17  O   LIG    1       -2.061  -8.762 -22.587  0.00  0.00    -0.446 OA
BRANCH  16  20
ATOM     18  C   LIG    1        1.424  -6.369 -22.347  0.00  0.00    +0.140 A 
ATOM     19  C   LIG    1        0.169  -6.950 -22.349  0.00  0.00    -0.026 A 
ATOM     20  C   LIG    1       -0.081  -8.073 -21.554  0.00  0.00    -0.090 A 
ATOM     21  C   LIG    1        0.939  -8.604 -20.761  0.00  0.00    -0.049 A 
ATOM     22  C   LIG    1        2.191  -8.019 -20.762  0.00  0.00    +0.139 A 
ATOM     23  C   LIG    1        2.439  -6.905 -21.559  0.00  0.00    +0.061 A 
BRANCH  18  25
ATOM     24  C   LIG    1        0.531  -4.591 -23.651  0.00  0.00    +0.249 C 
ATOM     25  O   LIG    1        1.667  -5.277 -23.120  0.00  0.00    -0.299 OA
ENDBRANCH  18  25
BRANCH  22  26
ATOM     26  O   LIG    1        3.184  -8.537 -19.989  0.00  0.00    -0.299 OA
ATOM     27  C   LIG    1        3.693  -9.819 -20.360  0.00  0.00    +0.245 C 
ENDBRANCH  22  26
BRANCH  23  28
ATOM     28  O   LIG    1        3.673  -6.334 -21.563  0.00  0.00    -0.312 OA
ATOM     29  C   LIG    1        4.604  -6.807 -22.537  0.00  0.00    +0.226 C 
ENDBRANCH  23  28
ENDBRANCH  16  20
ENDBRANCH   1  16
TORSDOF 9
ENDMDL
MODEL 7
REMARK VINA RESULT:      -6.8      7.251      9.330
REMARK  Name = CHEMBL168600
REMARK                            x       y       z     vdW  Elec       q    Type
REMARK                         _______ _______ _______ _____ _____    ______ ____
ROOT
ATOM      1  C   LIG    1       -3.370   0.303 -21.383  0.00  0.00    -0.088 C 
ATOM      2  C   LIG    1       -3.607   0.539 -20.073  0.00  0.00    +0.146 C 
ENDROOT
BRANCH   2   3
ATOM      3  C   LIG    1       -4.864   0.086 -19.460  0.00  0.00    -0.069 A 
ATOM      4  C   LIG    1       -5.302  -1.230 -19.649  0.00  0.00    +0.144 A 
ATOM      5  C   LIG    1       -6.479  -1.652 -19.073  0.00  0.00    -0.067 A 
ATOM      6  C   LIG    1       -7.234  -0.775 -18.306  0.00  0.00    +0.165 A 
ATOM      7  C   LIG    1       -6.806   0.538 -18.113  0.00  0.00    +0.086 A 
ATOM      8  C   LIG    1       -5.623   0.968 -18.682  0.00  0.00    +0.093 A 
BRANCH   5   9
ATOM      9  N   LIG    1       -6.942  -3.043 -19.273  0.00  0.00    +0.034 N 
ATOM     10  O   LIG    1       -7.318  -3.698 -18.329  0.00  0.00    -0.129 OA
ATOM     11  O   LIG    1       -6.943  -3.527 -20.382  0.00  0.00    -0.157 OA
ENDBRANCH   5   9
BRANCH   6  12
ATOM     12  O   LIG    1       -8.395  -1.197 -17.740  0.00  0.00    -0.459 OA
ATOM     13  H   LIG    1       -8.555  -0.839 -16.856  0.00  0.00    +0.407 HD
ENDBRANCH   6  12
BRANCH   7  14
ATOM     14  O   LIG    1       -7.549   1.393 -17.361  0.00  0.00    -0.471 OA
ATOM     15  H   LIG    1       -8.398   1.628 -17.758  0.00  0.00    +0.399 HD
ENDBRANCH   7  14
ENDBRANCH   2   3
BRANCH   1  16
ATOM     16  C   LIG    1       -2.157   0.740 -21.974  0.00  0.00    +0.426 C 
ATOM     17  O   LIG    1       -1.514   1.634 -21.454  0.00  0.00    -0.446 OA
BRANCH  16  20
ATOM     18  C   LIG    1       -1.818  -0.151 -25.610  0.00  0.00    +0.140 A 
ATOM     19  C   LIG    1       -2.272   0.437 -24.444  0.00  0.00    -0.026 A 
ATOM     20  C   LIG    1       -1.675   0.113 -23.221  0.00  0.00    -0.090 A 
ATOM     21  C   LIG    1       -0.624  -0.805 -23.183  0.00  0.00    -0.049 A 
ATOM     22  C   LIG    1       -0.174  -1.390 -24.351  0.00  0.00    +0.139 A 
ATOM     23  C   LIG    1       -0.773  -1.070 -25.566  0.00  0.00    +0.061 A 
BRANCH  18  25
ATOM     24  C   LIG    1       -3.455   1.125 -26.771  0.00  0.00    +0.249 C 
ATOM     25  O   LIG    1       -2.398   0.164 -26.799  0.00  0.00    -0.299 OA
ENDBRANCH  18  25
BRANCH  22  26
ATOM     26  O   LIG    1        0.850  -2.285 -24.313  0.00  0.00    -0.299 OA
ATOM     27  C   LIG    1        0.519  -3.639 -24.003  0.00  0.00    +0.245 C 
ENDBRANCH  22  26
BRANCH  23  28
ATOM     28  O   LIG    1       -0.333  -1.650 -26.714  0.00  0.00    -0.312 OA
ATOM     29  C   LIG    1        0.731  -0.995 -27.406  0.00  0.00    +0.226 C 
ENDBRANCH  23  28
ENDBRANCH  16  20
ENDBRANCH   1  16
TORSDOF 9
ENDMDL
MODEL 8
REMARK VINA RESULT:      -6.8      2.442      4.549
REMARK  Name = CHEMBL168600
REMARK                            x       y       z     vdW  Elec       q    Type
REMARK                         _______ _______ _______ _____ _____    ______ ____
ROOT
ATOM      1  C   LIG    1       -1.295  -8.968 -19.802  0.00  0.00    -0.088 C 
ATOM      2  C   LIG    1       -2.521  -9.473 -20.063  0.00  0.00    +0.146 C 
ENDROOT
BRANCH   2   3
ATOM      3  C   LIG    1       -3.318 -10.064 -18.978  0.00  0.00    -0.069 A 
ATOM      4  C   LIG    1       -3.227 -11.434 -18.704  0.00  0.00    +0.144 A 
ATOM      5  C   LIG    1       -3.974 -11.984 -17.687  0.00  0.00    -0.067 A 
ATOM      6  C   LIG    1       -4.820 -11.182 -16.931  0.00  0.00    +0.165 A 
ATOM      7  C   LIG    1       -4.917  -9.817 -17.196  0.00  0.00    +0.086 A 
ATOM      8  C   LIG    1       -4.166  -9.256 -18.211  0.00  0.00    +0.093 A 
BRANCH   5   9
ATOM      9  N   LIG    1       -3.877 -13.431 -17.399  0.00  0.00    +0.034 N 
ATOM     10  O   LIG    1       -3.842 -14.228 -18.308  0.00  0.00    -0.129 OA
ATOM     11  O   LIG    1       -3.832 -13.819 -16.255  0.00  0.00    -0.157 OA
ENDBRANCH   5   9
BRANCH   6  12
ATOM     12  O   LIG    1       -5.554 -11.730 -15.928  0.00  0.00    -0.459 OA
ATOM     13  H   LIG    1       -6.453 -11.381 -15.862  0.00  0.00    +0.407 HD
ENDBRANCH   6  12
BRANCH   7  14
ATOM     14  O   LIG    1       -5.747  -9.036 -16.453  0.00  0.00    -0.471 OA
ATOM     15  H   LIG    1       -5.892  -8.155 -16.822  0.00  0.00    +0.399 HD
ENDBRANCH   7  14
ENDBRANCH   2   3
BRANCH   1  16
ATOM     16  C   LIG    1       -0.526  -8.399 -20.849  0.00  0.00    +0.426 C 
ATOM     17  O   LIG    1       -1.022  -7.566 -21.586  0.00  0.00    -0.446 OA
BRANCH  16  20
ATOM     18  C   LIG    1        3.225  -8.288 -21.060  0.00  0.00    +0.140 A 
ATOM     19  C   LIG    1        1.913  -7.894 -20.876  0.00  0.00    -0.026 A 
ATOM     20  C   LIG    1        0.877  -8.817 -21.046  0.00  0.00    -0.090 A 
ATOM     21  C   LIG    1        1.172 -10.135 -21.403  0.00  0.00    -0.049 A 
ATOM     22  C   LIG    1        2.485 -10.524 -21.585  0.00  0.00    +0.139 A 
ATOM     23  C   LIG    1        3.515  -9.601 -21.421  0.00  0.00    +0.061 A 
BRANCH  18  25
ATOM     24  C   LIG    1        4.676  -7.151 -19.557  0.00  0.00    +0.249 C 
ATOM     25  O   LIG    1        4.233  -7.390 -20.894  0.00  0.00    -0.299 OA
ENDBRANCH  18  25
BRANCH  22  26
ATOM     26  O   LIG    1        2.772 -11.808 -21.932  0.00  0.00    -0.299 OA
ATOM     27  C   LIG    1        1.667 -12.658 -22.244  0.00  0.00    +0.245 C 
ENDBRANCH  22  26
BRANCH  23  28
ATOM     28  O   LIG    1        4.806  -9.985 -21.606  0.00  0.00    -0.312 OA
ATOM     29  C   LIG    1        5.458 -10.620 -20.505  0.00  0.00    +0.226 C 
ENDBRANCH  23  28
ENDBRANCH  16  20
ENDBRANCH   1  16
TORSDOF 9
ENDMDL
MODEL 9
REMARK VINA RESULT:      -6.8      7.316      9.378
REMARK  Name = CHEMBL168600
REMARK                            x       y       z     vdW  Elec       q    Type
REMARK                         _______ _______ _______ _____ _____    ______ ____
ROOT
ATOM      1  C   LIG    1       -3.030   0.239 -21.861  0.00  0.00    -0.088 C 
ATOM      2  C   LIG    1       -3.060  -0.070 -20.546  0.00  0.00    +0.146 C 
ENDROOT
BRANCH   2   3
ATOM      3  C   LIG    1       -4.319  -0.501 -19.921  0.00  0.00    -0.069 A 
ATOM      4  C   LIG    1       -4.884   0.255 -18.887  0.00  0.00    +0.144 A 
ATOM      5  C   LIG    1       -6.063  -0.151 -18.304  0.00  0.00    -0.067 A 
ATOM      6  C   LIG    1       -6.694  -1.309 -18.739  0.00  0.00    +0.165 A 
ATOM      7  C   LIG    1       -6.138  -2.068 -19.768  0.00  0.00    +0.086 A 
ATOM      8  C   LIG    1       -4.959  -1.665 -20.363  0.00  0.00    +0.093 A 
BRANCH   5   9
ATOM      9  N   LIG    1       -6.659   0.648 -17.210  0.00  0.00    +0.034 N 
ATOM     10  O   LIG    1       -7.213   1.694 -17.457  0.00  0.00    -0.129 OA
ATOM     11  O   LIG    1       -6.593   0.255 -16.069  0.00  0.00    -0.157 OA
ENDBRANCH   5   9
BRANCH   6  12
ATOM     12  O   LIG    1       -7.858  -1.704 -18.160  0.00  0.00    -0.459 OA
ATOM     13  H   LIG    1       -8.286  -1.020 -17.629  0.00  0.00    +0.407 HD
ENDBRANCH   6  12
BRANCH   7  14
ATOM     14  O   LIG    1       -6.760  -3.201 -20.191  0.00  0.00    -0.471 OA
ATOM     15  H   LIG    1       -7.237  -3.100 -21.025  0.00  0.00    +0.399 HD
ENDBRANCH   7  14
ENDBRANCH   2   3
BRANCH   1  16
ATOM     16  C   LIG    1       -1.815   0.655 -22.464  0.00  0.00    +0.426 C 
ATOM     17  O   LIG    1       -1.197   1.598 -22.002  0.00  0.00    -0.446 OA
BRANCH  16  20
ATOM     18  C   LIG    1        0.099  -1.759 -24.617  0.00  0.00    +0.140 A 
ATOM     19  C   LIG    1       -0.380  -1.095 -23.503  0.00  0.00    -0.026 A 
ATOM     20  C   LIG    1       -1.301  -0.054 -23.653  0.00  0.00    -0.090 A 
ATOM     21  C   LIG    1       -1.732   0.314 -24.929  0.00  0.00    -0.049 A 
ATOM     22  C   LIG    1       -1.249  -0.352 -26.040  0.00  0.00    +0.139 A 
ATOM     23  C   LIG    1       -0.329  -1.385 -25.888  0.00  0.00    +0.061 A 
BRANCH  18  25
ATOM     24  C   LIG    1        0.505  -3.996 -23.919  0.00  0.00    +0.249 C 
ATOM     25  O   LIG    1        0.994  -2.772 -24.471  0.00  0.00    -0.299 OA
ENDBRANCH  18  25
BRANCH  22  26
ATOM     26  O   LIG    1       -1.670   0.007 -27.283  0.00  0.00    -0.299 OA
ATOM     27  C   LIG    1       -3.033  -0.268 -27.612  0.00  0.00    +0.245 C 
ENDBRANCH  22  26
BRANCH  23  28
ATOM     28  O   LIG    1        0.148  -2.036 -26.983  0.00  0.00    -0.312 OA
ATOM     29  C   LIG    1       -0.594  -3.168 -27.439  0.00  0.00    +0.226 C 
ENDBRANCH  23  28
ENDBRANCH  16  20
ENDBRANCH   1  16
TORSDOF 9
ENDMDL
