MODEL 1
REMARK VINA RESULT:      -7.7      0.000      0.000
REMARK  Name = CHEMBL168600
REMARK                            x       y       z     vdW  Elec       q    Type
REMARK                         _______ _______ _______ _____ _____    ______ ____
ROOT
ATOM      1  C   LIG    1       -8.443  -5.979 -18.051  0.00  0.00    +0.430 C 
ATOM      2  O   LIG    1       -9.048  -5.513 -17.102  0.00  0.00    -0.477 OA
ENDROOT
BRANCH   1   5
ATOM      3  C   LIG    1       -7.343  -3.612 -20.755  0.00  0.00    +0.136 A 
ATOM      4  C   LIG    1       -7.387  -4.301 -19.557  0.00  0.00    -0.035 A 
ATOM      5  C   LIG    1       -8.395  -5.241 -19.330  0.00  0.00    -0.076 A 
ATOM      6  C   LIG    1       -9.357  -5.483 -20.314  0.00  0.00    -0.042 A 
ATOM      7  C   LIG    1       -9.309  -4.792 -21.510  0.00  0.00    +0.138 A 
ATOM      8  C   LIG    1       -8.306  -3.851 -21.732  0.00  0.00    +0.050 A 
BRANCH   3  10
ATOM      9  C   LIG    1       -5.494  -2.398 -19.882  0.00  0.00    +0.244 C 
ATOM     10  O   LIG    1       -6.362  -2.696 -20.977  0.00  0.00    -0.303 OA
ENDBRANCH   3  10
BRANCH   7  11
ATOM     11  O   LIG    1      -10.245  -5.027 -22.469  0.00  0.00    -0.303 OA
ATOM     12  C   LIG    1      -10.250  -6.324 -23.067  0.00  0.00    +0.246 C 
ENDBRANCH   7  11
BRANCH   8  13
ATOM     13  O   LIG    1       -8.264  -3.170 -22.907  0.00  0.00    -0.313 OA
ATOM     14  C   LIG    1       -7.727  -3.857 -24.038  0.00  0.00    +0.218 C 
ENDBRANCH   8  13
ENDBRANCH   1   5
BRANCH   1  15
ATOM     15  C   LIG    1       -7.787  -7.230 -17.929  0.00  0.00    -0.188 C 
ATOM     16  C   LIG    1       -6.482  -7.277 -17.574  0.00  0.00    +0.199 C 
BRANCH  16  17
ATOM     17  C   LIG    1       -5.802  -8.573 -17.447  0.00  0.00    -0.221 A 
ATOM     18  C   LIG    1       -4.850  -8.963 -18.397  0.00  0.00    +0.171 A 
ATOM     19  C   LIG    1       -4.214 -10.178 -18.275  0.00  0.00    -0.198 A 
ATOM     20  C   LIG    1       -4.514 -11.019 -17.213  0.00  0.00    +0.305 A 
ATOM     21  O   LIG    1       -3.884 -12.217 -17.098  0.00  0.00    -0.604 OA
ATOM     22  C   LIG    1       -5.462 -10.639 -16.262  0.00  0.00    -0.019 A 
ATOM     23  C   LIG    1       -6.101  -9.421 -16.373  0.00  0.00    +0.084 A 
BRANCH  19  24
ATOM     24  N   LIG    1       -3.208 -10.588 -19.281  0.00  0.00    +0.069 N 
ATOM     25  O   LIG    1       -2.099 -10.106 -19.258  0.00  0.00    -0.154 OA
ATOM     26  O   LIG    1       -3.495 -11.407 -20.123  0.00  0.00    -0.248 OA
ENDBRANCH  19  24
BRANCH  22  27
ATOM     27  O   LIG    1       -5.754 -11.467 -15.224  0.00  0.00    -0.480 OA
ATOM     28  H   LIG    1       -5.590 -12.403 -15.410  0.00  0.00    +0.370 HD
ENDBRANCH  22  27
ENDBRANCH  16  17
ENDBRANCH   1  15
TORSDOF 8
ENDMDL
MODEL 2
REMARK VINA RESULT:      -7.7      0.026      2.473
REMARK  Name = CHEMBL168600
REMARK                            x       y       z     vdW  Elec       q    Type
REMARK                         _______ _______ _______ _____ _____    ______ ____
ROOT
ATOM      1  C   LIG    1       -8.457  -5.992 -18.041  0.00  0.00    +0.430 C 
ATOM      2  O   LIG    1       -9.058  -5.527 -17.090  0.00  0.00    -0.477 OA
ENDROOT
BRANCH   1   5
ATOM      3  C   LIG    1       -9.337  -4.813 -21.499  0.00  0.00    +0.136 A 
ATOM      4  C   LIG    1       -9.378  -5.503 -20.302  0.00  0.00    -0.035 A 
ATOM      5  C   LIG    1       -8.415  -5.256 -19.320  0.00  0.00    -0.076 A 
ATOM      6  C   LIG    1       -7.412  -4.310 -19.551  0.00  0.00    -0.042 A 
ATOM      7  C   LIG    1       -7.375  -3.622 -20.749  0.00  0.00    +0.138 A 
ATOM      8  C   LIG    1       -8.333  -3.875 -21.728  0.00  0.00    +0.050 A 
BRANCH   3  10
ATOM      9  C   LIG    1      -10.273  -6.352 -23.052  0.00  0.00    +0.244 C 
ATOM     10  O   LIG    1      -10.274  -5.053 -22.455  0.00  0.00    -0.303 OA
ENDBRANCH   3  10
BRANCH   7  11
ATOM     11  O   LIG    1       -6.399  -2.702 -20.975  0.00  0.00    -0.303 OA
ATOM     12  C   LIG    1       -5.519  -2.411 -19.888  0.00  0.00    +0.246 C 
ENDBRANCH   7  11
BRANCH   8  13
ATOM     13  O   LIG    1       -8.292  -3.200 -22.907  0.00  0.00    -0.313 OA
ATOM     14  C   LIG    1       -7.753  -3.894 -24.034  0.00  0.00    +0.218 C 
ENDBRANCH   8  13
ENDBRANCH   1   5
BRANCH   1  15
ATOM     15  C   LIG    1       -7.797  -7.242 -17.920  0.00  0.00    -0.188 C 
ATOM     16  C   LIG    1       -6.489  -7.286 -17.576  0.00  0.00    +0.199 C 
BRANCH  16  17
ATOM     17  C   LIG    1       -5.806  -8.580 -17.451  0.00  0.00    -0.221 A 
ATOM     18  C   LIG    1       -4.855  -8.967 -18.403  0.00  0.00    +0.171 A 
ATOM     19  C   LIG    1       -4.216 -10.181 -18.283  0.00  0.00    -0.198 A 
ATOM     20  C   LIG    1       -4.511 -11.023 -17.219  0.00  0.00    +0.305 A 
ATOM     21  O   LIG    1       -3.877 -12.219 -17.106  0.00  0.00    -0.604 OA
ATOM     22  C   LIG    1       -5.457 -10.645 -16.266  0.00  0.00    -0.019 A 
ATOM     23  C   LIG    1       -6.099  -9.428 -16.375  0.00  0.00    +0.084 A 
BRANCH  19  24
ATOM     24  N   LIG    1       -3.211 -10.589 -19.291  0.00  0.00    +0.069 N 
ATOM     25  O   LIG    1       -2.105 -10.102 -19.273  0.00  0.00    -0.154 OA
ATOM     26  O   LIG    1       -3.498 -11.410 -20.131  0.00  0.00    -0.248 OA
ENDBRANCH  19  24
BRANCH  22  27
ATOM     27  O   LIG    1       -5.743 -11.474 -15.227  0.00  0.00    -0.480 OA
ATOM     28  H   LIG    1       -5.731 -11.039 -14.362  0.00  0.00    +0.370 HD
ENDBRANCH  22  27
ENDBRANCH  16  17
ENDBRANCH   1  15
TORSDOF 8
ENDMDL
MODEL 3
REMARK VINA RESULT:      -6.6      5.861      7.246
REMARK  Name = CHEMBL168600
REMARK                            x       y       z     vdW  Elec       q    Type
REMARK                         _______ _______ _______ _____ _____    ______ ____
ROOT
ATOM      1  C   LIG    1       -2.964  -9.725 -22.539  0.00  0.00    +0.430 C 
ATOM      2  O   LIG    1       -3.800  -9.794 -23.422  0.00  0.00    -0.477 OA
ENDROOT
BRANCH   1   5
ATOM      3  C   LIG    1       -1.041  -6.669 -23.581  0.00  0.00    +0.136 A 
ATOM      4  C   LIG    1       -1.977  -7.687 -23.574  0.00  0.00    -0.035 A 
ATOM      5  C   LIG    1       -1.966  -8.636 -22.549  0.00  0.00    -0.076 A 
ATOM      6  C   LIG    1       -1.010  -8.554 -21.532  0.00  0.00    -0.042 A 
ATOM      7  C   LIG    1       -0.078  -7.533 -21.544  0.00  0.00    +0.138 A 
ATOM      8  C   LIG    1       -0.087  -6.592 -22.570  0.00  0.00    +0.050 A 
BRANCH   3  10
ATOM      9  C   LIG    1       -0.977  -6.236 -25.919  0.00  0.00    +0.244 C 
ATOM     10  O   LIG    1       -1.051  -5.745 -24.579  0.00  0.00    -0.303 OA
ENDBRANCH   3  10
BRANCH   7  11
ATOM     11  O   LIG    1        0.853  -7.453 -20.556  0.00  0.00    -0.303 OA
ATOM     12  C   LIG    1        1.947  -8.368 -20.618  0.00  0.00    +0.246 C 
ENDBRANCH   7  11
BRANCH   8  13
ATOM     13  O   LIG    1        0.834  -5.593 -22.582  0.00  0.00    -0.313 OA
ATOM     14  C   LIG    1        2.020  -5.811 -23.348  0.00  0.00    +0.218 C 
ENDBRANCH   8  13
ENDBRANCH   1   5
BRANCH   1  15
ATOM     15  C   LIG    1       -2.949 -10.691 -21.500  0.00  0.00    -0.188 C 
ATOM     16  C   LIG    1       -3.924 -10.692 -20.563  0.00  0.00    +0.199 C 
BRANCH  16  17
ATOM     17  C   LIG    1       -3.909 -11.693 -19.488  0.00  0.00    -0.221 A 
ATOM     18  C   LIG    1       -3.413 -12.979 -19.733  0.00  0.00    +0.171 A 
ATOM     19  C   LIG    1       -3.399 -13.915 -18.723  0.00  0.00    -0.198 A 
ATOM     20  C   LIG    1       -3.876 -13.587 -17.461  0.00  0.00    +0.305 A 
ATOM     21  O   LIG    1       -3.860 -14.515 -16.468  0.00  0.00    -0.604 OA
ATOM     22  C   LIG    1       -4.373 -12.308 -17.208  0.00  0.00    -0.019 A 
ATOM     23  C   LIG    1       -4.385 -11.362 -18.213  0.00  0.00    +0.084 A 
BRANCH  19  24
ATOM     24  N   LIG    1       -2.875 -15.275 -18.984  0.00  0.00    +0.069 N 
ATOM     25  O   LIG    1       -3.441 -16.001 -19.768  0.00  0.00    -0.154 OA
ATOM     26  O   LIG    1       -1.881 -15.659 -18.413  0.00  0.00    -0.248 OA
ENDBRANCH  19  24
BRANCH  22  27
ATOM     27  O   LIG    1       -4.840 -11.992 -15.971  0.00  0.00    -0.480 OA
ATOM     28  H   LIG    1       -5.022 -12.761 -15.412  0.00  0.00    +0.370 HD
ENDBRANCH  22  27
ENDBRANCH  16  17
ENDBRANCH   1  15
TORSDOF 8
ENDMDL
MODEL 4
REMARK VINA RESULT:      -6.6      5.854      7.111
REMARK  Name = CHEMBL168600
REMARK                            x       y       z     vdW  Elec       q    Type
REMARK                         _______ _______ _______ _____ _____    ______ ____
ROOT
ATOM      1  C   LIG    1       -2.901  -9.649 -22.527  0.00  0.00    +0.430 C 
ATOM      2  O   LIG    1       -3.742  -9.690 -23.407  0.00  0.00    -0.477 OA
ENDROOT
BRANCH   1   5
ATOM      3  C   LIG    1        0.059  -7.554 -21.541  0.00  0.00    +0.136 A 
ATOM      4  C   LIG    1       -0.897  -8.553 -21.536  0.00  0.00    -0.035 A 
ATOM      5  C   LIG    1       -1.879  -8.584 -22.530  0.00  0.00    -0.076 A 
ATOM      6  C   LIG    1       -1.891  -7.605 -23.528  0.00  0.00    -0.042 A 
ATOM      7  C   LIG    1       -0.932  -6.609 -23.529  0.00  0.00    +0.138 A 
ATOM      8  C   LIG    1        0.041  -6.578 -22.533  0.00  0.00    +0.050 A 
BRANCH   3  10
ATOM      9  C   LIG    1        2.013  -8.546 -20.615  0.00  0.00    +0.244 C 
ATOM     10  O   LIG    1        1.014  -7.524 -20.574  0.00  0.00    -0.303 OA
ENDBRANCH   3  10
BRANCH   7  11
ATOM     11  O   LIG    1       -0.944  -5.656 -24.499  0.00  0.00    -0.303 OA
ATOM     12  C   LIG    1       -0.806  -6.102 -25.848  0.00  0.00    +0.246 C 
ENDBRANCH   7  11
BRANCH   8  13
ATOM     13  O   LIG    1        0.980  -5.595 -22.534  0.00  0.00    -0.313 OA
ATOM     14  C   LIG    1        2.186  -5.848 -23.255  0.00  0.00    +0.218 C 
ENDBRANCH   8  13
ENDBRANCH   1   5
BRANCH   1  15
ATOM     15  C   LIG    1       -2.904 -10.626 -21.499  0.00  0.00    -0.188 C 
ATOM     16  C   LIG    1       -3.879 -10.618 -20.561  0.00  0.00    +0.199 C 
BRANCH  16  17
ATOM     17  C   LIG    1       -3.882 -11.630 -19.496  0.00  0.00    -0.221 A 
ATOM     18  C   LIG    1       -3.395 -12.917 -19.750  0.00  0.00    +0.171 A 
ATOM     19  C   LIG    1       -3.399 -13.864 -18.749  0.00  0.00    -0.198 A 
ATOM     20  C   LIG    1       -3.885 -13.545 -17.489  0.00  0.00    +0.305 A 
ATOM     21  O   LIG    1       -3.887 -14.483 -16.506  0.00  0.00    -0.604 OA
ATOM     22  C   LIG    1       -4.373 -12.264 -17.227  0.00  0.00    -0.019 A 
ATOM     23  C   LIG    1       -4.368 -11.308 -18.222  0.00  0.00    +0.084 A 
BRANCH  19  24
ATOM     24  N   LIG    1       -2.884 -15.225 -19.019  0.00  0.00    +0.069 N 
ATOM     25  O   LIG    1       -3.448 -15.938 -19.817  0.00  0.00    -0.154 OA
ATOM     26  O   LIG    1       -1.899 -15.624 -18.443  0.00  0.00    -0.248 OA
ENDBRANCH  19  24
BRANCH  22  27
ATOM     27  O   LIG    1       -4.850 -11.957 -15.991  0.00  0.00    -0.480 OA
ATOM     28  H   LIG    1       -4.763 -12.674 -15.348  0.00  0.00    +0.370 HD
ENDBRANCH  22  27
ENDBRANCH  16  17
ENDBRANCH   1  15
TORSDOF 8
ENDMDL
MODEL 5
REMARK VINA RESULT:      -6.5      5.534      8.419
REMARK  Name = CHEMBL168600
REMARK                            x       y       z     vdW  Elec       q    Type
REMARK                         _______ _______ _______ _____ _____    ______ ____
ROOT
ATOM      1  C   LIG    1       -0.948  -9.811 -21.792  0.00  0.00    +0.430 C 
ATOM      2  O   LIG    1       -1.259 -10.061 -22.943  0.00  0.00    -0.477 OA
ENDROOT
BRANCH   1   5
ATOM      3  C   LIG    1        2.391  -8.619 -20.544  0.00  0.00    +0.136 A 
ATOM      4  C   LIG    1        1.308  -9.437 -20.804  0.00  0.00    -0.035 A 
ATOM      5  C   LIG    1        0.211  -8.939 -21.513  0.00  0.00    -0.076 A 
ATOM      6  C   LIG    1        0.212  -7.613 -21.957  0.00  0.00    -0.042 A 
ATOM      7  C   LIG    1        1.298  -6.799 -21.694  0.00  0.00    +0.138 A 
ATOM      8  C   LIG    1        2.387  -7.298 -20.983  0.00  0.00    +0.050 A 
BRANCH   3  10
ATOM      9  C   LIG    1        4.291 -10.049 -20.529  0.00  0.00    +0.244 C 
ATOM     10  O   LIG    1        3.458  -9.104 -19.855  0.00  0.00    -0.303 OA
ENDBRANCH   3  10
BRANCH   7  11
ATOM     11  O   LIG    1        1.300  -5.510 -22.126  0.00  0.00    -0.303 OA
ATOM     12  C   LIG    1        1.160  -5.295 -23.531  0.00  0.00    +0.246 C 
ENDBRANCH   7  11
BRANCH   8  13
ATOM     13  O   LIG    1        3.452  -6.494 -20.722  0.00  0.00    -0.313 OA
ATOM     14  C   LIG    1        4.490  -6.452 -21.703  0.00  0.00    +0.218 C 
ENDBRANCH   8  13
ENDBRANCH   1   5
BRANCH   1  15
ATOM     15  C   LIG    1       -1.698 -10.358 -20.720  0.00  0.00    -0.188 C 
ATOM     16  C   LIG    1       -2.628  -9.604 -20.091  0.00  0.00    +0.199 C 
BRANCH  16  17
ATOM     17  C   LIG    1       -3.406 -10.170 -18.981  0.00  0.00    -0.221 A 
ATOM     18  C   LIG    1       -3.324 -11.538 -18.693  0.00  0.00    +0.171 A 
ATOM     19  C   LIG    1       -4.053 -12.066 -17.651  0.00  0.00    -0.198 A 
ATOM     20  C   LIG    1       -4.871 -11.246 -16.885  0.00  0.00    +0.305 A 
ATOM     21  O   LIG    1       -5.588 -11.773 -15.859  0.00  0.00    -0.604 OA
ATOM     22  C   LIG    1       -4.958  -9.882 -17.166  0.00  0.00    -0.019 A 
ATOM     23  C   LIG    1       -4.227  -9.343 -18.204  0.00  0.00    +0.084 A 
BRANCH  19  24
ATOM     24  N   LIG    1       -3.966 -13.513 -17.348  0.00  0.00    +0.069 N 
ATOM     25  O   LIG    1       -3.979 -14.321 -18.247  0.00  0.00    -0.154 OA
ATOM     26  O   LIG    1       -3.881 -13.886 -16.201  0.00  0.00    -0.248 OA
ENDBRANCH  19  24
BRANCH  22  27
ATOM     27  O   LIG    1       -5.762  -9.084 -16.413  0.00  0.00    -0.480 OA
ATOM     28  H   LIG    1       -6.130  -8.330 -16.896  0.00  0.00    +0.370 HD
ENDBRANCH  22  27
ENDBRANCH  16  17
ENDBRANCH   1  15
TORSDOF 8
ENDMDL
MODEL 6
REMARK VINA RESULT:      -6.5      6.457     11.069
REMARK  Name = CHEMBL168600
REMARK                            x       y       z     vdW  Elec       q    Type
REMARK                         _______ _______ _______ _____ _____    ______ ____
ROOT
ATOM      1  C   LIG    1       -2.749 -16.426 -20.518  0.00  0.00    +0.430 C 
ATOM      2  O   LIG    1       -1.611 -16.848 -20.409  0.00  0.00    -0.477 OA
ENDROOT
BRANCH   1   5
ATOM      3  C   LIG    1       -5.472 -17.734 -22.753  0.00  0.00    +0.136 A 
ATOM      4  C   LIG    1       -4.480 -16.920 -22.238  0.00  0.00    -0.035 A 
ATOM      5  C   LIG    1       -3.808 -17.293 -21.071  0.00  0.00    -0.076 A 
ATOM      6  C   LIG    1       -4.140 -18.490 -20.428  0.00  0.00    -0.042 A 
ATOM      7  C   LIG    1       -5.132 -19.300 -20.948  0.00  0.00    +0.138 A 
ATOM      8  C   LIG    1       -5.804 -18.922 -22.108  0.00  0.00    +0.050 A 
BRANCH   3  10
ATOM      9  C   LIG    1       -6.601 -16.025 -23.961  0.00  0.00    +0.244 C 
ATOM     10  O   LIG    1       -6.126 -17.371 -23.889  0.00  0.00    -0.303 OA
ENDBRANCH   3  10
BRANCH   7  11
ATOM     11  O   LIG    1       -5.456 -20.463 -20.323  0.00  0.00    -0.303 OA
ATOM     12  C   LIG    1       -4.450 -21.062 -19.504  0.00  0.00    +0.246 C 
ENDBRANCH   7  11
BRANCH   8  13
ATOM     13  O   LIG    1       -6.782 -19.718 -22.614  0.00  0.00    -0.313 OA
ATOM     14  C   LIG    1       -6.382 -20.729 -23.541  0.00  0.00    +0.218 C 
ENDBRANCH   8  13
ENDBRANCH   1   5
BRANCH   1  15
ATOM     15  C   LIG    1       -3.056 -15.102 -20.113  0.00  0.00    -0.188 C 
ATOM     16  C   LIG    1       -3.394 -14.849 -18.828  0.00  0.00    +0.199 C 
BRANCH  16  17
ATOM     17  C   LIG    1       -3.712 -13.477 -18.408  0.00  0.00    -0.221 A 
ATOM     18  C   LIG    1       -3.361 -12.395 -19.224  0.00  0.00    +0.171 A 
ATOM     19  C   LIG    1       -3.660 -11.110 -18.828  0.00  0.00    -0.198 A 
ATOM     20  C   LIG    1       -4.310 -10.885 -17.622  0.00  0.00    +0.305 A 
ATOM     21  O   LIG    1       -4.602  -9.615 -17.237  0.00  0.00    -0.604 OA
ATOM     22  C   LIG    1       -4.662 -11.958 -16.803  0.00  0.00    -0.019 A 
ATOM     23  C   LIG    1       -4.371 -13.249 -17.194  0.00  0.00    +0.084 A 
BRANCH  19  24
ATOM     24  N   LIG    1       -3.288  -9.966 -19.691  0.00  0.00    +0.069 N 
ATOM     25  O   LIG    1       -2.492  -9.145 -19.297  0.00  0.00    -0.154 OA
ATOM     26  O   LIG    1       -3.779  -9.854 -20.790  0.00  0.00    -0.248 OA
ENDBRANCH  19  24
BRANCH  22  27
ATOM     27  O   LIG    1       -5.297 -11.732 -15.622  0.00  0.00    -0.480 OA
ATOM     28  H   LIG    1       -5.723 -12.516 -15.248  0.00  0.00    +0.370 HD
ENDBRANCH  22  27
ENDBRANCH  16  17
ENDBRANCH   1  15
TORSDOF 8
ENDMDL
MODEL 7
REMARK VINA RESULT:      -6.4      6.091     10.832
REMARK  Name = CHEMBL168600
REMARK                            x       y       z     vdW  Elec       q    Type
REMARK                         _______ _______ _______ _____ _____    ______ ____
ROOT
ATOM      1  C   LIG    1       -2.665 -16.211 -19.609  0.00  0.00    +0.430 C 
ATOM      2  O   LIG    1       -1.656 -16.672 -19.105  0.00  0.00    -0.477 OA
ENDROOT
BRANCH   1   5
ATOM      3  C   LIG    1       -4.638 -19.114 -20.952  0.00  0.00    +0.136 A 
ATOM      4  C   LIG    1       -3.865 -18.334 -20.112  0.00  0.00    -0.035 A 
ATOM      5  C   LIG    1       -3.491 -17.046 -20.504  0.00  0.00    -0.076 A 
ATOM      6  C   LIG    1       -3.899 -16.550 -21.746  0.00  0.00    -0.042 A 
ATOM      7  C   LIG    1       -4.673 -17.333 -22.582  0.00  0.00    +0.138 A 
ATOM      8  C   LIG    1       -5.039 -18.619 -22.190  0.00  0.00    +0.050 A 
BRANCH   3  10
ATOM      9  C   LIG    1       -4.114 -21.062 -19.693  0.00  0.00    +0.244 C 
ATOM     10  O   LIG    1       -5.003 -20.367 -20.571  0.00  0.00    -0.303 OA
ENDBRANCH   3  10
BRANCH   7  11
ATOM     11  O   LIG    1       -5.070 -16.851 -23.789  0.00  0.00    -0.303 OA
ATOM     12  C   LIG    1       -5.516 -15.495 -23.831  0.00  0.00    +0.246 C 
ENDBRANCH   7  11
BRANCH   8  13
ATOM     13  O   LIG    1       -5.796 -19.389 -23.016  0.00  0.00    -0.313 OA
ATOM     14  C   LIG    1       -7.209 -19.179 -22.987  0.00  0.00    +0.218 C 
ENDBRANCH   8  13
ENDBRANCH   1   5
BRANCH   1  15
ATOM     15  C   LIG    1       -3.046 -14.873 -19.337  0.00  0.00    -0.188 C 
ATOM     16  C   LIG    1       -3.479 -14.531 -18.102  0.00  0.00    +0.199 C 
BRANCH  16  17
ATOM     17  C   LIG    1       -3.874 -13.144 -17.819  0.00  0.00    -0.221 A 
ATOM     18  C   LIG    1       -3.482 -12.113 -18.681  0.00  0.00    +0.171 A 
ATOM     19  C   LIG    1       -3.854 -10.814 -18.415  0.00  0.00    -0.198 A 
ATOM     20  C   LIG    1       -4.617 -10.524 -17.291  0.00  0.00    +0.305 A 
ATOM     21  O   LIG    1       -4.980  -9.241 -17.033  0.00  0.00    -0.604 OA
ATOM     22  C   LIG    1       -5.011 -11.545 -16.426  0.00  0.00    -0.019 A 
ATOM     23  C   LIG    1       -4.647 -12.850 -16.689  0.00  0.00    +0.084 A 
BRANCH  19  24
ATOM     24  N   LIG    1       -3.439  -9.725 -19.327  0.00  0.00    +0.069 N 
ATOM     25  O   LIG    1       -2.774  -8.807 -18.909  0.00  0.00    -0.154 OA
ATOM     26  O   LIG    1       -3.764  -9.755 -20.491  0.00  0.00    -0.248 OA
ENDBRANCH  19  24
BRANCH  22  27
ATOM     27  O   LIG    1       -5.756 -11.255 -15.327  0.00  0.00    -0.480 OA
ATOM     28  H   LIG    1       -5.302 -10.696 -14.681  0.00  0.00    +0.370 HD
ENDBRANCH  22  27
ENDBRANCH  16  17
ENDBRANCH   1  15
TORSDOF 8
ENDMDL
MODEL 8
REMARK VINA RESULT:      -6.2      0.981      2.272
REMARK  Name = CHEMBL168600
REMARK                            x       y       z     vdW  Elec       q    Type
REMARK                         _______ _______ _______ _____ _____    ______ ____
ROOT
ATOM      1  C   LIG    1       -8.425  -6.099 -17.897  0.00  0.00    +0.430 C 
ATOM      2  O   LIG    1       -9.055  -5.697 -16.935  0.00  0.00    -0.477 OA
ENDROOT
BRANCH   1   5
ATOM      3  C   LIG    1       -7.472  -3.610 -20.547  0.00  0.00    +0.136 A 
ATOM      4  C   LIG    1       -7.468  -4.332 -19.368  0.00  0.00    -0.035 A 
ATOM      5  C   LIG    1       -8.426  -5.326 -19.156  0.00  0.00    -0.076 A 
ATOM      6  C   LIG    1       -9.387  -5.590 -20.137  0.00  0.00    -0.042 A 
ATOM      7  C   LIG    1       -9.386  -4.866 -21.315  0.00  0.00    +0.138 A 
ATOM      8  C   LIG    1       -8.433  -3.871 -21.521  0.00  0.00    +0.050 A 
BRANCH   3  10
ATOM      9  C   LIG    1       -5.523  -2.498 -19.760  0.00  0.00    +0.244 C 
ATOM     10  O   LIG    1       -6.540  -2.642 -20.754  0.00  0.00    -0.303 OA
ENDBRANCH   3  10
BRANCH   7  11
ATOM     11  O   LIG    1      -10.320  -5.121 -22.270  0.00  0.00    -0.303 OA
ATOM     12  C   LIG    1      -10.173  -6.332 -23.013  0.00  0.00    +0.246 C 
ENDBRANCH   7  11
BRANCH   8  13
ATOM     13  O   LIG    1       -8.437  -3.158 -22.677  0.00  0.00    -0.313 OA
ATOM     14  C   LIG    1       -7.751  -3.726 -23.794  0.00  0.00    +0.218 C 
ENDBRANCH   8  13
ENDBRANCH   1   5
BRANCH   1  15
ATOM     15  C   LIG    1       -7.689  -7.307 -17.808  0.00  0.00    -0.188 C 
ATOM     16  C   LIG    1       -6.336  -7.276 -17.774  0.00  0.00    +0.199 C 
BRANCH  16  17
ATOM     17  C   LIG    1       -5.574  -8.528 -17.681  0.00  0.00    -0.221 A 
ATOM     18  C   LIG    1       -5.880  -9.464 -16.686  0.00  0.00    +0.171 A 
ATOM     19  C   LIG    1       -5.164 -10.637 -16.602  0.00  0.00    -0.198 A 
ATOM     20  C   LIG    1       -4.138 -10.895 -17.502  0.00  0.00    +0.305 A 
ATOM     21  O   LIG    1       -3.435 -12.054 -17.413  0.00  0.00    -0.604 OA
ATOM     22  C   LIG    1       -3.827  -9.967 -18.496  0.00  0.00    -0.019 A 
ATOM     23  C   LIG    1       -4.543  -8.791 -18.591  0.00  0.00    +0.084 A 
BRANCH  19  24
ATOM     24  N   LIG    1       -5.488 -11.626 -15.548  0.00  0.00    +0.069 N 
ATOM     25  O   LIG    1       -4.995 -12.729 -15.583  0.00  0.00    -0.154 OA
ATOM     26  O   LIG    1       -6.244 -11.329 -14.653  0.00  0.00    -0.248 OA
ENDBRANCH  19  24
BRANCH  22  27
ATOM     27  O   LIG    1       -2.821 -10.224 -19.374  0.00  0.00    -0.480 OA
ATOM     28  H   LIG    1       -1.955  -9.901 -19.085  0.00  0.00    +0.370 HD
ENDBRANCH  22  27
ENDBRANCH  16  17
ENDBRANCH   1  15
TORSDOF 8
ENDMDL
MODEL 9
REMARK VINA RESULT:      -6.0      5.078      6.960
REMARK  Name = CHEMBL168600
REMARK                            x       y       z     vdW  Elec       q    Type
REMARK                         _______ _______ _______ _____ _____    ______ ____
ROOT
ATOM      1  C   LIG    1       -2.057 -10.063 -22.573  0.00  0.00    +0.430 C 
ATOM      2  O   LIG    1       -1.620 -11.078 -23.084  0.00  0.00    -0.477 OA
ENDROOT
BRANCH   1   5
ATOM      3  C   LIG    1       -2.408  -7.180 -24.958  0.00  0.00    +0.136 A 
ATOM      4  C   LIG    1       -2.607  -8.403 -24.346  0.00  0.00    -0.035 A 
ATOM      5  C   LIG    1       -1.846  -8.756 -23.228  0.00  0.00    -0.076 A 
ATOM      6  C   LIG    1       -0.886  -7.870 -22.731  0.00  0.00    -0.042 A 
ATOM      7  C   LIG    1       -0.692  -6.648 -23.346  0.00  0.00    +0.138 A 
ATOM      8  C   LIG    1       -1.448  -6.301 -24.464  0.00  0.00    +0.050 A 
BRANCH   3  10
ATOM      9  C   LIG    1       -4.523  -7.228 -26.045  0.00  0.00    +0.244 C 
ATOM     10  O   LIG    1       -3.149  -6.836 -26.046  0.00  0.00    -0.303 OA
ENDBRANCH   3  10
BRANCH   7  11
ATOM     11  O   LIG    1        0.243  -5.785 -22.864  0.00  0.00    -0.303 OA
ATOM     12  C   LIG    1        1.588  -6.260 -22.792  0.00  0.00    +0.246 C 
ENDBRANCH   7  11
BRANCH   8  13
ATOM     13  O   LIG    1       -1.251  -5.101 -25.070  0.00  0.00    -0.313 OA
ATOM     14  C   LIG    1       -0.269  -5.049 -26.106  0.00  0.00    +0.218 C 
ENDBRANCH   8  13
ENDBRANCH   1   5
BRANCH   1  15
ATOM     15  C   LIG    1       -2.766 -10.135 -21.347  0.00  0.00    -0.188 C 
ATOM     16  C   LIG    1       -2.669 -11.240 -20.573  0.00  0.00    +0.199 C 
BRANCH  16  17
ATOM     17  C   LIG    1       -3.404 -11.315 -19.303  0.00  0.00    -0.221 A 
ATOM     18  C   LIG    1       -4.089 -10.192 -18.821  0.00  0.00    +0.171 A 
ATOM     19  C   LIG    1       -4.777 -10.265 -17.631  0.00  0.00    -0.198 A 
ATOM     20  C   LIG    1       -4.794 -11.449 -16.906  0.00  0.00    +0.305 A 
ATOM     21  O   LIG    1       -5.475 -11.515 -15.732  0.00  0.00    -0.604 OA
ATOM     22  C   LIG    1       -4.114 -12.572 -17.379  0.00  0.00    -0.019 A 
ATOM     23  C   LIG    1       -3.426 -12.510 -18.573  0.00  0.00    +0.084 A 
BRANCH  19  24
ATOM     24  N   LIG    1       -5.500  -9.078 -17.122  0.00  0.00    +0.069 N 
ATOM     25  O   LIG    1       -6.576  -9.209 -16.585  0.00  0.00    -0.154 OA
ATOM     26  O   LIG    1       -5.015  -7.977 -17.243  0.00  0.00    -0.248 OA
ENDBRANCH  19  24
BRANCH  22  27
ATOM     27  O   LIG    1       -4.132 -13.729 -16.664  0.00  0.00    -0.480 OA
ATOM     28  H   LIG    1       -4.690 -13.694 -15.874  0.00  0.00    +0.370 HD
ENDBRANCH  22  27
ENDBRANCH  16  17
ENDBRANCH   1  15
TORSDOF 8
ENDMDL
