MODEL 1
REMARK VINA RESULT:      -7.1      0.000      0.000
REMARK  Name = CHEMBL168276
REMARK                            x       y       z     vdW  Elec       q    Type
REMARK                         _______ _______ _______ _____ _____    ______ ____
ROOT
ATOM      1  C   LIG    1       -6.825  -1.467 -18.545  0.00  0.00    +0.219 A 
ATOM      2  C   LIG    1       -6.277  -2.261 -19.535  0.00  0.00    -0.160 A 
ATOM      3  C   LIG    1       -5.153  -1.840 -20.220  0.00  0.00    +0.115 A 
ATOM      4  C   LIG    1       -4.572  -0.620 -19.915  0.00  0.00    +0.004 A 
ATOM      5  C   LIG    1       -5.124   0.179 -18.918  0.00  0.00    +0.310 A 
ATOM      6  O   LIG    1       -4.557   1.378 -18.614  0.00  0.00    -0.583 OA
ATOM      7  C   LIG    1       -6.250  -0.249 -18.235  0.00  0.00    -0.186 A 
ENDROOT
BRANCH   2   8
ATOM      8  N   LIG    1       -6.896  -3.566 -19.863  0.00  0.00    +0.068 N 
ATOM      9  O   LIG    1       -6.647  -4.538 -19.189  0.00  0.00    -0.194 OA
ATOM     10  O   LIG    1       -7.649  -3.658 -20.804  0.00  0.00    -0.196 OA
ENDBRANCH   2   8
BRANCH   7  11
ATOM     11  N   LIG    1       -6.840   0.600 -17.174  0.00  0.00    +0.067 N 
ATOM     12  O   LIG    1       -7.631   1.466 -17.464  0.00  0.00    -0.140 OA
ATOM     13  O   LIG    1       -6.529   0.425 -16.019  0.00  0.00    -0.231 OA
ENDBRANCH   7  11
BRANCH   4  14
ATOM     14  O   LIG    1       -3.465  -0.204 -20.586  0.00  0.00    -0.471 OA
ATOM     15  H   LIG    1       -3.408  -0.534 -21.493  0.00  0.00    +0.378 HD
ENDBRANCH   4  14
TORSDOF 3
ENDMDL
MODEL 2
REMARK VINA RESULT:      -7.0      1.492      3.137
REMARK  Name = CHEMBL168276
REMARK                            x       y       z     vdW  Elec       q    Type
REMARK                         _______ _______ _______ _____ _____    ______ ____
ROOT
ATOM      1  C   LIG    1       -5.811  -2.218 -19.638  0.00  0.00    +0.219 A 
ATOM      2  C   LIG    1       -7.092  -2.386 -19.144  0.00  0.00    -0.160 A 
ATOM      3  C   LIG    1       -7.680  -1.388 -18.388  0.00  0.00    +0.115 A 
ATOM      4  C   LIG    1       -6.987  -0.218 -18.126  0.00  0.00    +0.004 A 
ATOM      5  C   LIG    1       -5.699  -0.049 -18.624  0.00  0.00    +0.310 A 
ATOM      6  O   LIG    1       -5.015   1.099 -18.368  0.00  0.00    -0.583 OA
ATOM      7  C   LIG    1       -5.115  -1.052 -19.380  0.00  0.00    -0.186 A 
ENDROOT
BRANCH   2   8
ATOM      8  N   LIG    1       -7.833  -3.636 -19.423  0.00  0.00    +0.068 N 
ATOM      9  O   LIG    1       -8.171  -4.354 -18.511  0.00  0.00    -0.194 OA
ATOM     10  O   LIG    1       -8.099  -3.939 -20.563  0.00  0.00    -0.196 OA
ENDBRANCH   2   8
BRANCH   7  11
ATOM     11  N   LIG    1       -3.744  -0.876 -19.911  0.00  0.00    +0.067 N 
ATOM     12  O   LIG    1       -3.568  -0.272 -20.942  0.00  0.00    -0.140 OA
ATOM     13  O   LIG    1       -2.800  -1.338 -19.312  0.00  0.00    -0.231 OA
ENDBRANCH   7  11
BRANCH   4  14
ATOM     14  O   LIG    1       -7.565   0.765 -17.384  0.00  0.00    -0.471 OA
ATOM     15  H   LIG    1       -8.134   1.359 -17.893  0.00  0.00    +0.378 HD
ENDBRANCH   4  14
TORSDOF 3
ENDMDL
MODEL 3
REMARK VINA RESULT:      -6.5      1.862      3.657
REMARK  Name = CHEMBL168276
REMARK                            x       y       z     vdW  Elec       q    Type
REMARK                         _______ _______ _______ _____ _____    ______ ____
ROOT
ATOM      1  C   LIG    1       -4.819   0.601 -19.056  0.00  0.00    +0.219 A 
ATOM      2  C   LIG    1       -4.234  -0.046 -20.129  0.00  0.00    -0.160 A 
ATOM      3  C   LIG    1       -4.713  -1.275 -20.544  0.00  0.00    +0.115 A 
ATOM      4  C   LIG    1       -5.782  -1.860 -19.885  0.00  0.00    +0.004 A 
ATOM      5  C   LIG    1       -6.370  -1.208 -18.805  0.00  0.00    +0.310 A 
ATOM      6  O   LIG    1       -7.420  -1.779 -18.155  0.00  0.00    -0.583 OA
ATOM      7  C   LIG    1       -5.885   0.023 -18.394  0.00  0.00    -0.186 A 
ENDROOT
BRANCH   2   8
ATOM      8  N   LIG    1       -3.092   0.578 -20.835  0.00  0.00    +0.068 N 
ATOM      9  O   LIG    1       -2.206  -0.114 -21.280  0.00  0.00    -0.194 OA
ATOM     10  O   LIG    1       -3.045   1.779 -20.965  0.00  0.00    -0.196 OA
ENDBRANCH   2   8
BRANCH   7  11
ATOM     11  N   LIG    1       -6.509   0.718 -17.245  0.00  0.00    +0.067 N 
ATOM     12  O   LIG    1       -7.184   1.703 -17.430  0.00  0.00    -0.140 OA
ATOM     13  O   LIG    1       -6.341   0.300 -16.123  0.00  0.00    -0.231 OA
ENDBRANCH   7  11
BRANCH   4  14
ATOM     14  O   LIG    1       -6.256  -3.068 -20.291  0.00  0.00    -0.471 OA
ATOM     15  H   LIG    1       -5.576  -3.658 -20.645  0.00  0.00    +0.378 HD
ENDBRANCH   4  14
TORSDOF 3
ENDMDL
MODEL 4
REMARK VINA RESULT:      -6.4      1.697      4.771
REMARK  Name = CHEMBL168276
REMARK                            x       y       z     vdW  Elec       q    Type
REMARK                         _______ _______ _______ _____ _____    ______ ____
ROOT
ATOM      1  C   LIG    1       -5.436   0.064 -18.592  0.00  0.00    +0.219 A 
ATOM      2  C   LIG    1       -6.550  -0.033 -17.779  0.00  0.00    -0.160 A 
ATOM      3  C   LIG    1       -7.446  -1.072 -17.949  0.00  0.00    +0.115 A 
ATOM      4  C   LIG    1       -7.227  -2.020 -18.935  0.00  0.00    +0.004 A 
ATOM      5  C   LIG    1       -6.106  -1.923 -19.753  0.00  0.00    +0.310 A 
ATOM      6  O   LIG    1       -5.887  -2.852 -20.723  0.00  0.00    -0.583 OA
ATOM      7  C   LIG    1       -5.212  -0.879 -19.578  0.00  0.00    -0.186 A 
ENDROOT
BRANCH   2   8
ATOM      8  N   LIG    1       -6.785   0.979 -16.724  0.00  0.00    +0.068 N 
ATOM      9  O   LIG    1       -7.248   2.058 -17.015  0.00  0.00    -0.194 OA
ATOM     10  O   LIG    1       -6.513   0.728 -15.574  0.00  0.00    -0.196 OA
ENDBRANCH   2   8
BRANCH   7  11
ATOM     11  N   LIG    1       -4.018  -0.772 -20.447  0.00  0.00    +0.067 N 
ATOM     12  O   LIG    1       -2.927  -1.055 -20.011  0.00  0.00    -0.140 OA
ATOM     13  O   LIG    1       -4.136  -0.401 -21.592  0.00  0.00    -0.231 OA
ENDBRANCH   7  11
BRANCH   4  14
ATOM     14  O   LIG    1       -8.106  -3.044 -19.104  0.00  0.00    -0.471 OA
ATOM     15  H   LIG    1       -8.780  -2.877 -19.777  0.00  0.00    +0.378 HD
ENDBRANCH   4  14
TORSDOF 3
ENDMDL
MODEL 5
REMARK VINA RESULT:      -5.8      1.167      4.243
REMARK  Name = CHEMBL168276
REMARK                            x       y       z     vdW  Elec       q    Type
REMARK                         _______ _______ _______ _____ _____    ______ ____
ROOT
ATOM      1  C   LIG    1       -6.216  -0.785 -18.590  0.00  0.00    +0.219 A 
ATOM      2  C   LIG    1       -5.946   0.489 -18.125  0.00  0.00    -0.160 A 
ATOM      3  C   LIG    1       -5.014   1.280 -18.770  0.00  0.00    +0.115 A 
ATOM      4  C   LIG    1       -4.350   0.798 -19.886  0.00  0.00    +0.004 A 
ATOM      5  C   LIG    1       -4.622  -0.484 -20.354  0.00  0.00    +0.310 A 
ATOM      6  O   LIG    1       -3.972  -0.961 -21.449  0.00  0.00    -0.583 OA
ATOM      7  C   LIG    1       -5.557  -1.272 -19.703  0.00  0.00    -0.186 A 
ENDROOT
BRANCH   2   8
ATOM      8  N   LIG    1       -6.656   1.006 -16.933  0.00  0.00    +0.068 N 
ATOM      9  O   LIG    1       -7.465   1.897 -17.051  0.00  0.00    -0.194 OA
ATOM     10  O   LIG    1       -6.425   0.539 -15.842  0.00  0.00    -0.196 OA
ENDBRANCH   2   8
BRANCH   7  11
ATOM     11  N   LIG    1       -5.848  -2.637 -20.198  0.00  0.00    +0.067 N 
ATOM     12  O   LIG    1       -6.363  -2.789 -21.280  0.00  0.00    -0.140 OA
ATOM     13  O   LIG    1       -5.572  -3.598 -19.518  0.00  0.00    -0.231 OA
ENDBRANCH   7  11
BRANCH   4  14
ATOM     14  O   LIG    1       -3.433   1.575 -20.523  0.00  0.00    -0.471 OA
ATOM     15  H   LIG    1       -3.532   2.522 -20.349  0.00  0.00    +0.378 HD
ENDBRANCH   4  14
TORSDOF 3
ENDMDL
MODEL 6
REMARK VINA RESULT:      -5.5      9.007     11.715
REMARK  Name = CHEMBL168276
REMARK                            x       y       z     vdW  Elec       q    Type
REMARK                         _______ _______ _______ _____ _____    ______ ____
ROOT
ATOM      1  C   LIG    1       -4.224 -10.690 -18.896  0.00  0.00    +0.219 A 
ATOM      2  C   LIG    1       -4.731 -10.605 -17.612  0.00  0.00    -0.160 A 
ATOM      3  C   LIG    1       -4.694 -11.707 -16.777  0.00  0.00    +0.115 A 
ATOM      4  C   LIG    1       -4.148 -12.898 -17.225  0.00  0.00    +0.004 A 
ATOM      5  C   LIG    1       -3.638 -12.983 -18.518  0.00  0.00    +0.310 A 
ATOM      6  O   LIG    1       -3.101 -14.151 -18.962  0.00  0.00    -0.583 OA
ATOM      7  C   LIG    1       -3.678 -11.876 -19.349  0.00  0.00    -0.186 A 
ENDROOT
BRANCH   2   8
ATOM      8  N   LIG    1       -5.315  -9.332 -17.131  0.00  0.00    +0.068 N 
ATOM      9  O   LIG    1       -6.277  -9.348 -16.399  0.00  0.00    -0.194 OA
ATOM     10  O   LIG    1       -4.830  -8.279 -17.470  0.00  0.00    -0.196 OA
ENDBRANCH   2   8
BRANCH   7  11
ATOM     11  N   LIG    1       -3.137 -11.963 -20.725  0.00  0.00    +0.067 N 
ATOM     12  O   LIG    1       -1.999 -11.623 -20.949  0.00  0.00    -0.140 OA
ATOM     13  O   LIG    1       -3.834 -12.374 -21.623  0.00  0.00    -0.231 OA
ENDBRANCH   7  11
BRANCH   4  14
ATOM     14  O   LIG    1       -4.110 -13.982 -16.405  0.00  0.00    -0.471 OA
ATOM     15  H   LIG    1       -4.247 -13.773 -15.471  0.00  0.00    +0.378 HD
ENDBRANCH   4  14
TORSDOF 3
ENDMDL
MODEL 7
REMARK VINA RESULT:      -5.3      8.877     10.837
REMARK  Name = CHEMBL168276
REMARK                            x       y       z     vdW  Elec       q    Type
REMARK                         _______ _______ _______ _____ _____    ______ ____
ROOT
ATOM      1  C   LIG    1       -4.099 -10.550 -18.827  0.00  0.00    +0.219 A 
ATOM      2  C   LIG    1       -3.498 -11.736 -19.208  0.00  0.00    -0.160 A 
ATOM      3  C   LIG    1       -3.551 -12.839 -18.376  0.00  0.00    +0.115 A 
ATOM      4  C   LIG    1       -4.209 -12.759 -17.159  0.00  0.00    +0.004 A 
ATOM      5  C   LIG    1       -4.814 -11.565 -16.777  0.00  0.00    +0.310 A 
ATOM      6  O   LIG    1       -5.461 -11.482 -15.584  0.00  0.00    -0.583 OA
ATOM      7  C   LIG    1       -4.757 -10.463 -17.615  0.00  0.00    -0.186 A 
ENDROOT
BRANCH   2   8
ATOM      8  N   LIG    1       -2.795 -11.824 -20.507  0.00  0.00    +0.068 N 
ATOM      9  O   LIG    1       -2.511 -12.905 -20.968  0.00  0.00    -0.194 OA
ATOM     10  O   LIG    1       -2.504 -10.816 -21.107  0.00  0.00    -0.196 OA
ENDBRANCH   2   8
BRANCH   7  11
ATOM     11  N   LIG    1       -5.400  -9.192 -17.211  0.00  0.00    +0.067 N 
ATOM     12  O   LIG    1       -4.843  -8.141 -17.421  0.00  0.00    -0.140 OA
ATOM     13  O   LIG    1       -6.482  -9.208 -16.670  0.00  0.00    -0.231 OA
ENDBRANCH   7  11
BRANCH   4  14
ATOM     14  O   LIG    1       -4.264 -13.843 -16.340  0.00  0.00    -0.471 OA
ATOM     15  H   LIG    1       -3.909 -14.652 -16.735  0.00  0.00    +0.378 HD
ENDBRANCH   4  14
TORSDOF 3
ENDMDL
MODEL 8
REMARK VINA RESULT:      -5.3     10.169     12.132
REMARK  Name = CHEMBL168276
REMARK                            x       y       z     vdW  Elec       q    Type
REMARK                         _______ _______ _______ _____ _____    ______ ____
ROOT
ATOM      1  C   LIG    1       -3.223 -12.803 -19.473  0.00  0.00    +0.219 A 
ATOM      2  C   LIG    1       -3.410 -13.903 -18.656  0.00  0.00    -0.160 A 
ATOM      3  C   LIG    1       -3.989 -13.751 -17.409  0.00  0.00    +0.115 A 
ATOM      4  C   LIG    1       -4.384 -12.496 -16.977  0.00  0.00    +0.004 A 
ATOM      5  C   LIG    1       -4.196 -11.389 -17.800  0.00  0.00    +0.310 A 
ATOM      6  O   LIG    1       -4.582 -10.155 -17.379  0.00  0.00    -0.583 OA
ATOM      7  C   LIG    1       -3.615 -11.548 -19.047  0.00  0.00    -0.186 A 
ENDROOT
BRANCH   2   8
ATOM      8  N   LIG    1       -2.988 -15.245 -19.116  0.00  0.00    +0.068 N 
ATOM      9  O   LIG    1       -2.195 -15.885 -18.466  0.00  0.00    -0.194 OA
ATOM     10  O   LIG    1       -3.436 -15.700 -20.142  0.00  0.00    -0.196 OA
ENDBRANCH   2   8
BRANCH   7  11
ATOM     11  N   LIG    1       -3.413 -10.372 -19.925  0.00  0.00    +0.067 N 
ATOM     12  O   LIG    1       -4.056 -10.260 -20.942  0.00  0.00    -0.140 OA
ATOM     13  O   LIG    1       -2.603  -9.526 -19.623  0.00  0.00    -0.231 OA
ENDBRANCH   7  11
BRANCH   4  14
ATOM     14  O   LIG    1       -4.955 -12.344 -15.752  0.00  0.00    -0.471 OA
ATOM     15  H   LIG    1       -5.761 -11.811 -15.758  0.00  0.00    +0.378 HD
ENDBRANCH   4  14
TORSDOF 3
ENDMDL
MODEL 9
REMARK VINA RESULT:      -4.9     13.462     14.261
REMARK  Name = CHEMBL168276
REMARK                            x       y       z     vdW  Elec       q    Type
REMARK                         _______ _______ _______ _____ _____    ______ ____
ROOT
ATOM      1  C   LIG    1        7.221  -4.747 -17.562  0.00  0.00    +0.219 A 
ATOM      2  C   LIG    1        7.005  -3.876 -16.509  0.00  0.00    -0.160 A 
ATOM      3  C   LIG    1        7.101  -2.511 -16.707  0.00  0.00    +0.115 A 
ATOM      4  C   LIG    1        7.413  -2.013 -17.961  0.00  0.00    +0.004 A 
ATOM      5  C   LIG    1        7.631  -2.889 -19.020  0.00  0.00    +0.310 A 
ATOM      6  O   LIG    1        7.938  -2.404 -20.253  0.00  0.00    -0.583 OA
ATOM      7  C   LIG    1        7.533  -4.256 -18.816  0.00  0.00    -0.186 A 
ENDROOT
BRANCH   2   8
ATOM      8  N   LIG    1        6.670  -4.407 -15.169  0.00  0.00    +0.068 N 
ATOM      9  O   LIG    1        6.016  -3.740 -14.401  0.00  0.00    -0.194 OA
ATOM     10  O   LIG    1        7.051  -5.506 -14.841  0.00  0.00    -0.196 OA
ENDBRANCH   2   8
BRANCH   7  11
ATOM     11  N   LIG    1        7.764  -5.191 -19.940  0.00  0.00    +0.067 N 
ATOM     12  O   LIG    1        6.837  -5.556 -20.622  0.00  0.00    -0.140 OA
ATOM     13  O   LIG    1        8.882  -5.590 -20.174  0.00  0.00    -0.231 OA
ENDBRANCH   7  11
BRANCH   4  14
ATOM     14  O   LIG    1        7.507  -0.670 -18.158  0.00  0.00    -0.471 OA
ATOM     15  H   LIG    1        6.862  -0.154 -17.656  0.00  0.00    +0.378 HD
ENDBRANCH   4  14
TORSDOF 3
ENDMDL
