MODEL 1
REMARK VINA RESULT:      -6.4      0.000      0.000
REMARK  Name = CHEMBL1089538
REMARK                            x       y       z     vdW  Elec       q    Type
REMARK                         _______ _______ _______ _____ _____    ______ ____
ROOT
ATOM      1  C   LIG    1        6.256  -7.372 -19.215  0.00  0.00    -0.267 A 
ATOM      2  C   LIG    1        6.863  -6.305 -19.808  0.00  0.00    +0.099 A 
ATOM      3 CL   LIG    1        7.274  -6.365 -21.493  0.00  0.00    -0.034 Cl
ATOM      4  C   LIG    1        7.155  -5.157 -19.051  0.00  0.00    -0.216 A 
ATOM      5  C   LIG    1        7.778  -3.956 -19.486  0.00  0.00    +0.109 A 
ATOM      6  C   LIG    1        7.991  -2.929 -18.620  0.00  0.00    +0.018 A 
ATOM      7  C   LIG    1        7.607  -3.014 -17.278  0.00  0.00    +0.331 A 
ATOM      8  O   LIG    1        7.831  -1.975 -16.432  0.00  0.00    -0.621 OA
ATOM      9  C   LIG    1        6.997  -4.169 -16.818  0.00  0.00    -0.165 A 
ATOM     10  C   LIG    1        6.777  -5.215 -17.688  0.00  0.00    +0.011 A 
ATOM     11  S   LIG    1        6.043  -6.823 -17.530  0.00  0.00    +0.119 S 
ENDROOT
BRANCH   9  12
ATOM     12  N   LIG    1        6.583  -4.280 -15.401  0.00  0.00    +0.062 N 
ATOM     13  O   LIG    1        5.791  -3.491 -14.940  0.00  0.00    -0.160 OA
ATOM     14  O   LIG    1        7.038  -5.157 -14.705  0.00  0.00    -0.161 OA
ENDBRANCH   9  12
BRANCH   1  15
ATOM     15  C   LIG    1        5.867  -8.651 -19.815  0.00  0.00    +0.559 C 
ATOM     16  O   LIG    1        6.377  -9.684 -19.427  0.00  0.00    -0.479 OA
BRANCH  15  17
ATOM     17  O   LIG    1        4.944  -8.682 -20.798  0.00  0.00    -0.344 OA
BRANCH  17  18
ATOM     18  C   LIG    1        3.599  -8.362 -20.435  0.00  0.00    +0.392 C 
ATOM     19  C   LIG    1        2.875  -9.633 -19.989  0.00  0.00    +0.082 C 
BRANCH  18  20
ATOM     20  O   LIG    1        2.924  -7.799 -21.561  0.00  0.00    -0.352 OA
BRANCH  20  21
ATOM     21  C   LIG    1        1.813  -7.087 -21.313  0.00  0.00    +0.460 C 
ATOM     22  O   LIG    1        1.865  -6.120 -20.590  0.00  0.00    -0.482 OA
BRANCH  21  24
ATOM     23  C   LIG    1        0.738  -8.652 -22.906  0.00  0.00    +0.062 C 
ATOM     24  C   LIG    1        0.502  -7.494 -21.935  0.00  0.00    +0.020 C 
ATOM     25  C   LIG    1       -0.467  -7.937 -20.837  0.00  0.00    +0.057 C 
ENDBRANCH  21  24
ENDBRANCH  20  21
ENDBRANCH  18  20
ENDBRANCH  17  18
ENDBRANCH  15  17
ENDBRANCH   1  15
BRANCH   6  26
ATOM     26  O   LIG    1        8.590  -1.794 -19.069  0.00  0.00    -0.478 OA
ATOM     27  H   LIG    1        8.882  -1.840 -19.990  0.00  0.00    +0.378 HD
ENDBRANCH   6  26
TORSDOF 8
ENDMDL
MODEL 2
REMARK VINA RESULT:      -6.0     10.700     13.194
REMARK  Name = CHEMBL1089538
REMARK                            x       y       z     vdW  Elec       q    Type
REMARK                         _______ _______ _______ _____ _____    ______ ____
ROOT
ATOM      1  C   LIG    1       -2.460 -14.910 -21.162  0.00  0.00    -0.267 A 
ATOM      2  C   LIG    1       -2.953 -15.065 -19.901  0.00  0.00    +0.099 A 
ATOM      3 CL   LIG    1       -3.105 -16.652 -19.216  0.00  0.00    -0.034 Cl
ATOM      4  C   LIG    1       -3.339 -13.936 -19.156  0.00  0.00    -0.216 A 
ATOM      5  C   LIG    1       -3.870 -13.895 -17.839  0.00  0.00    +0.109 A 
ATOM      6  C   LIG    1       -4.196 -12.710 -17.257  0.00  0.00    +0.018 A 
ATOM      7  C   LIG    1       -4.021 -11.495 -17.926  0.00  0.00    +0.331 A 
ATOM      8  O   LIG    1       -4.355 -10.324 -17.323  0.00  0.00    -0.621 OA
ATOM      9  C   LIG    1       -3.505 -11.496 -19.211  0.00  0.00    -0.165 A 
ATOM     10  C   LIG    1       -3.173 -12.691 -19.809  0.00  0.00    +0.011 A 
ATOM     11  S   LIG    1       -2.497 -13.140 -21.388  0.00  0.00    +0.119 S 
ENDROOT
BRANCH   9  12
ATOM     12  N   LIG    1       -3.313 -10.220 -19.937  0.00  0.00    +0.062 N 
ATOM     13  O   LIG    1       -4.026  -9.945 -20.875  0.00  0.00    -0.160 OA
ATOM     14  O   LIG    1       -2.443  -9.454 -19.593  0.00  0.00    -0.161 OA
ENDBRANCH   9  12
BRANCH   1  15
ATOM     15  C   LIG    1       -2.005 -15.941 -22.098  0.00  0.00    +0.559 C 
ATOM     16  O   LIG    1       -0.999 -16.581 -21.855  0.00  0.00    -0.479 OA
BRANCH  15  17
ATOM     17  O   LIG    1       -2.700 -16.181 -23.227  0.00  0.00    -0.344 OA
BRANCH  17  18
ATOM     18  C   LIG    1       -3.204 -17.505 -23.411  0.00  0.00    +0.392 C 
ATOM     19  C   LIG    1       -3.693 -17.670 -24.851  0.00  0.00    +0.082 C 
BRANCH  18  20
ATOM     20  O   LIG    1       -4.289 -17.732 -22.510  0.00  0.00    -0.352 OA
BRANCH  20  21
ATOM     21  C   LIG    1       -4.227 -18.834 -21.745  0.00  0.00    +0.460 C 
ATOM     22  O   LIG    1       -3.196 -19.458 -21.670  0.00  0.00    -0.482 OA
BRANCH  21  24
ATOM     23  C   LIG    1       -6.396 -20.019 -21.929  0.00  0.00    +0.062 C 
ATOM     24  C   LIG    1       -5.442 -19.290 -20.980  0.00  0.00    +0.020 C 
ATOM     25  C   LIG    1       -5.014 -20.238 -19.859  0.00  0.00    +0.057 C 
ENDBRANCH  21  24
ENDBRANCH  20  21
ENDBRANCH  18  20
ENDBRANCH  17  18
ENDBRANCH  15  17
ENDBRANCH   1  15
BRANCH   6  26
ATOM     26  O   LIG    1       -4.702 -12.707 -15.994  0.00  0.00    -0.478 OA
ATOM     27  H   LIG    1       -4.862 -13.589 -15.631  0.00  0.00    +0.378 HD
ENDBRANCH   6  26
TORSDOF 8
ENDMDL
MODEL 3
REMARK VINA RESULT:      -5.9      1.640      2.719
REMARK  Name = CHEMBL1089538
REMARK                            x       y       z     vdW  Elec       q    Type
REMARK                         _______ _______ _______ _____ _____    ______ ____
ROOT
ATOM      1  C   LIG    1        6.558  -6.956 -20.099  0.00  0.00    -0.267 A 
ATOM      2  C   LIG    1        6.374  -6.928 -18.749  0.00  0.00    +0.099 A 
ATOM      3 CL   LIG    1        5.742  -8.322 -17.929  0.00  0.00    -0.034 Cl
ATOM      4  C   LIG    1        6.696  -5.769 -18.022  0.00  0.00    -0.216 A 
ATOM      5  C   LIG    1        6.575  -5.550 -16.623  0.00  0.00    +0.109 A 
ATOM      6  C   LIG    1        6.932  -4.359 -16.072  0.00  0.00    +0.018 A 
ATOM      7  C   LIG    1        7.431  -3.313 -16.854  0.00  0.00    +0.331 A 
ATOM      8  O   LIG    1        7.781  -2.132 -16.279  0.00  0.00    -0.621 OA
ATOM      9  C   LIG    1        7.563  -3.490 -18.221  0.00  0.00    -0.165 A 
ATOM     10  C   LIG    1        7.203  -4.692 -18.788  0.00  0.00    +0.011 A 
ATOM     11  S   LIG    1        7.215  -5.333 -20.444  0.00  0.00    +0.119 S 
ENDROOT
BRANCH   9  12
ATOM     12  N   LIG    1        8.088  -2.394 -19.067  0.00  0.00    +0.062 N 
ATOM     13  O   LIG    1        7.324  -1.621 -19.597  0.00  0.00    -0.160 OA
ATOM     14  O   LIG    1        9.280  -2.273 -19.227  0.00  0.00    -0.161 OA
ENDBRANCH   9  12
BRANCH   1  15
ATOM     15  C   LIG    1        6.291  -8.051 -21.036  0.00  0.00    +0.559 C 
ATOM     16  O   LIG    1        7.071  -8.980 -21.123  0.00  0.00    -0.479 OA
BRANCH  15  17
ATOM     17  O   LIG    1        5.180  -8.028 -21.800  0.00  0.00    -0.344 OA
BRANCH  17  18
ATOM     18  C   LIG    1        3.924  -8.092 -21.123  0.00  0.00    +0.392 C 
ATOM     19  C   LIG    1        3.662  -9.529 -20.668  0.00  0.00    +0.082 C 
BRANCH  18  20
ATOM     20  O   LIG    1        2.884  -7.675 -22.008  0.00  0.00    -0.352 OA
BRANCH  20  21
ATOM     21  C   LIG    1        1.758  -7.205 -21.448  0.00  0.00    +0.460 C 
ATOM     22  O   LIG    1        1.817  -6.329 -20.617  0.00  0.00    -0.482 OA
BRANCH  21  24
ATOM     23  C   LIG    1       -0.444  -7.977 -20.610  0.00  0.00    +0.062 C 
ATOM     24  C   LIG    1        0.421  -7.769 -21.855  0.00  0.00    +0.020 C 
ATOM     25  C   LIG    1       -0.277  -6.793 -22.804  0.00  0.00    +0.057 C 
ENDBRANCH  21  24
ENDBRANCH  20  21
ENDBRANCH  18  20
ENDBRANCH  17  18
ENDBRANCH  15  17
ENDBRANCH   1  15
BRANCH   6  26
ATOM     26  O   LIG    1        6.803  -4.183 -14.729  0.00  0.00    -0.478 OA
ATOM     27  H   LIG    1        5.905  -3.967 -14.445  0.00  0.00    +0.378 HD
ENDBRANCH   6  26
TORSDOF 8
ENDMDL
MODEL 4
REMARK VINA RESULT:      -5.9     10.733     12.751
REMARK  Name = CHEMBL1089538
REMARK                            x       y       z     vdW  Elec       q    Type
REMARK                         _______ _______ _______ _____ _____    ______ ____
ROOT
ATOM      1  C   LIG    1       -2.579 -14.956 -20.988  0.00  0.00    -0.267 A 
ATOM      2  C   LIG    1       -3.061 -15.054 -19.717  0.00  0.00    +0.099 A 
ATOM      3 CL   LIG    1       -3.224 -16.612 -18.968  0.00  0.00    -0.034 Cl
ATOM      4  C   LIG    1       -3.425 -13.893 -19.015  0.00  0.00    -0.216 A 
ATOM      5  C   LIG    1       -3.942 -13.792 -17.695  0.00  0.00    +0.109 A 
ATOM      6  C   LIG    1       -4.247 -12.581 -17.157  0.00  0.00    +0.018 A 
ATOM      7  C   LIG    1       -4.065 -11.396 -17.876  0.00  0.00    +0.331 A 
ATOM      8  O   LIG    1       -4.379 -10.198 -17.317  0.00  0.00    -0.621 OA
ATOM      9  C   LIG    1       -3.563 -11.454 -19.166  0.00  0.00    -0.165 A 
ATOM     10  C   LIG    1       -3.251 -12.677 -19.719  0.00  0.00    +0.011 A 
ATOM     11  S   LIG    1       -2.597 -13.196 -21.285  0.00  0.00    +0.119 S 
ENDROOT
BRANCH   9  12
ATOM     12  N   LIG    1       -3.363 -10.211 -19.944  0.00  0.00    +0.062 N 
ATOM     13  O   LIG    1       -2.467  -9.454 -19.653  0.00  0.00    -0.160 OA
ATOM     14  O   LIG    1       -4.097  -9.954 -20.870  0.00  0.00    -0.161 OA
ENDBRANCH   9  12
BRANCH   1  15
ATOM     15  C   LIG    1       -2.146 -16.029 -21.887  0.00  0.00    +0.559 C 
ATOM     16  O   LIG    1       -1.020 -16.480 -21.797  0.00  0.00    -0.479 OA
BRANCH  15  17
ATOM     17  O   LIG    1       -2.995 -16.517 -22.814  0.00  0.00    -0.344 OA
BRANCH  17  18
ATOM     18  C   LIG    1       -4.390 -16.461 -22.510  0.00  0.00    +0.392 C 
ATOM     19  C   LIG    1       -4.853 -17.822 -21.988  0.00  0.00    +0.082 C 
BRANCH  18  20
ATOM     20  O   LIG    1       -5.122 -16.129 -23.690  0.00  0.00    -0.352 OA
BRANCH  20  21
ATOM     21  C   LIG    1       -5.864 -15.010 -23.653  0.00  0.00    +0.460 C 
ATOM     22  O   LIG    1       -5.472 -14.046 -23.041  0.00  0.00    -0.482 OA
BRANCH  21  24
ATOM     23  C   LIG    1       -7.873 -16.323 -24.277  0.00  0.00    +0.062 C 
ATOM     24  C   LIG    1       -7.186 -14.959 -24.375  0.00  0.00    +0.020 C 
ATOM     25  C   LIG    1       -8.076 -13.892 -23.734  0.00  0.00    +0.057 C 
ENDBRANCH  21  24
ENDBRANCH  20  21
ENDBRANCH  18  20
ENDBRANCH  17  18
ENDBRANCH  15  17
ENDBRANCH   1  15
BRANCH   6  26
ATOM     26  O   LIG    1       -4.741 -12.522 -15.891  0.00  0.00    -0.478 OA
ATOM     27  H   LIG    1       -4.433 -13.234 -15.314  0.00  0.00    +0.378 HD
ENDBRANCH   6  26
TORSDOF 8
ENDMDL
MODEL 5
REMARK VINA RESULT:      -5.8      8.161     11.192
REMARK  Name = CHEMBL1089538
REMARK                            x       y       z     vdW  Elec       q    Type
REMARK                         _______ _______ _______ _____ _____    ______ ____
ROOT
ATOM      1  C   LIG    1       -3.119 -11.856 -21.634  0.00  0.00    -0.267 A 
ATOM      2  C   LIG    1       -3.114 -12.892 -20.749  0.00  0.00    +0.099 A 
ATOM      3 CL   LIG    1       -2.537 -14.453 -21.242  0.00  0.00    -0.034 Cl
ATOM      4  C   LIG    1       -3.576 -12.694 -19.436  0.00  0.00    -0.216 A 
ATOM      5  C   LIG    1       -3.648 -13.642 -18.380  0.00  0.00    +0.109 A 
ATOM      6  C   LIG    1       -4.126 -13.287 -17.158  0.00  0.00    +0.018 A 
ATOM      7  C   LIG    1       -4.561 -11.984 -16.894  0.00  0.00    +0.331 A 
ATOM      8  O   LIG    1       -5.035 -11.654 -15.663  0.00  0.00    -0.621 OA
ATOM      9  C   LIG    1       -4.506 -11.033 -17.899  0.00  0.00    -0.165 A 
ATOM     10  C   LIG    1       -4.023 -11.384 -19.140  0.00  0.00    +0.011 A 
ATOM     11  S   LIG    1       -3.777 -10.509 -20.665  0.00  0.00    +0.119 S 
ENDROOT
BRANCH   9  12
ATOM     12  N   LIG    1       -4.962  -9.649 -17.640  0.00  0.00    +0.062 N 
ATOM     13  O   LIG    1       -4.246  -8.715 -17.918  0.00  0.00    -0.160 OA
ATOM     14  O   LIG    1       -6.049  -9.452 -17.150  0.00  0.00    -0.161 OA
ENDBRANCH   9  12
BRANCH   1  15
ATOM     15  C   LIG    1       -2.685 -11.847 -23.033  0.00  0.00    +0.559 C 
ATOM     16  O   LIG    1       -3.501 -11.990 -23.924  0.00  0.00    -0.479 OA
BRANCH  15  17
ATOM     17  O   LIG    1       -1.381 -11.680 -23.334  0.00  0.00    -0.344 OA
BRANCH  17  18
ATOM     18  C   LIG    1       -0.996 -10.415 -23.874  0.00  0.00    +0.392 C 
ATOM     19  C   LIG    1        0.062 -10.624 -24.959  0.00  0.00    +0.082 C 
BRANCH  18  20
ATOM     20  O   LIG    1       -0.457  -9.597 -22.834  0.00  0.00    -0.352 OA
BRANCH  20  21
ATOM     21  C   LIG    1       -1.119  -8.465 -22.543  0.00  0.00    +0.460 C 
ATOM     22  O   LIG    1       -2.010  -8.085 -23.265  0.00  0.00    -0.482 OA
BRANCH  21  24
ATOM     23  C   LIG    1       -0.748  -8.592 -20.096  0.00  0.00    +0.062 C 
ATOM     24  C   LIG    1       -0.751  -7.671 -21.317  0.00  0.00    +0.020 C 
ATOM     25  C   LIG    1        0.642  -7.064 -21.502  0.00  0.00    +0.057 C 
ENDBRANCH  21  24
ENDBRANCH  20  21
ENDBRANCH  18  20
ENDBRANCH  17  18
ENDBRANCH  15  17
ENDBRANCH   1  15
BRANCH   6  26
ATOM     26  O   LIG    1       -4.182 -14.220 -16.169  0.00  0.00    -0.478 OA
ATOM     27  H   LIG    1       -4.783 -14.954 -16.353  0.00  0.00    +0.378 HD
ENDBRANCH   6  26
TORSDOF 8
ENDMDL
MODEL 6
REMARK VINA RESULT:      -5.6      6.101     10.493
REMARK  Name = CHEMBL1089538
REMARK                            x       y       z     vdW  Elec       q    Type
REMARK                         _______ _______ _______ _____ _____    ______ ____
ROOT
ATOM      1  C   LIG    1       -1.006 -10.152 -21.999  0.00  0.00    -0.267 A 
ATOM      2  C   LIG    1       -1.451  -9.729 -20.782  0.00  0.00    +0.099 A 
ATOM      3 CL   LIG    1       -0.988  -8.168 -20.181  0.00  0.00    -0.034 Cl
ATOM      4  C   LIG    1       -2.287 -10.560 -20.015  0.00  0.00    -0.216 A 
ATOM      5  C   LIG    1       -2.848 -10.298 -18.736  0.00  0.00    +0.109 A 
ATOM      6  C   LIG    1       -3.642 -11.216 -18.123  0.00  0.00    +0.018 A 
ATOM      7  C   LIG    1       -3.937 -12.444 -18.724  0.00  0.00    +0.331 A 
ATOM      8  O   LIG    1       -4.734 -13.345 -18.091  0.00  0.00    -0.621 OA
ATOM      9  C   LIG    1       -3.409 -12.734 -19.971  0.00  0.00    -0.165 A 
ATOM     10  C   LIG    1       -2.602 -11.810 -20.599  0.00  0.00    +0.011 A 
ATOM     11  S   LIG    1       -1.748 -11.768 -22.155  0.00  0.00    +0.119 S 
ENDROOT
BRANCH   9  12
ATOM     12  N   LIG    1       -3.709 -14.028 -20.624  0.00  0.00    +0.062 N 
ATOM     13  O   LIG    1       -4.544 -14.085 -21.497  0.00  0.00    -0.160 OA
ATOM     14  O   LIG    1       -3.119 -15.028 -20.284  0.00  0.00    -0.161 OA
ENDBRANCH   9  12
BRANCH   1  15
ATOM     15  C   LIG    1       -0.138  -9.451 -22.948  0.00  0.00    +0.559 C 
ATOM     16  O   LIG    1       -0.625  -8.754 -23.818  0.00  0.00    -0.479 OA
BRANCH  15  17
ATOM     17  O   LIG    1        1.202  -9.577 -22.857  0.00  0.00    -0.344 OA
BRANCH  17  18
ATOM     18  C   LIG    1        1.947  -8.393 -22.568  0.00  0.00    +0.392 C 
ATOM     19  C   LIG    1        3.107  -8.266 -23.557  0.00  0.00    +0.082 C 
BRANCH  18  20
ATOM     20  O   LIG    1        2.462  -8.467 -21.237  0.00  0.00    -0.352 OA
BRANCH  20  21
ATOM     21  C   LIG    1        2.869  -7.317 -20.675  0.00  0.00    +0.460 C 
ATOM     22  O   LIG    1        2.157  -6.342 -20.713  0.00  0.00    -0.482 OA
BRANCH  21  24
ATOM     23  C   LIG    1        4.640  -8.647 -19.560  0.00  0.00    +0.062 C 
ATOM     24  C   LIG    1        4.213  -7.244 -19.998  0.00  0.00    +0.020 C 
ATOM     25  C   LIG    1        5.246  -6.678 -20.974  0.00  0.00    +0.057 C 
ENDBRANCH  21  24
ENDBRANCH  20  21
ENDBRANCH  18  20
ENDBRANCH  17  18
ENDBRANCH  15  17
ENDBRANCH   1  15
BRANCH   6  26
ATOM     26  O   LIG    1       -4.162 -10.933 -16.898  0.00  0.00    -0.478 OA
ATOM     27  H   LIG    1       -4.590 -10.068 -16.842  0.00  0.00    +0.378 HD
ENDBRANCH   6  26
TORSDOF 8
ENDMDL
MODEL 7
REMARK VINA RESULT:      -5.4      4.626      7.907
REMARK  Name = CHEMBL1089538
REMARK                            x       y       z     vdW  Elec       q    Type
REMARK                         _______ _______ _______ _____ _____    ______ ____
ROOT
ATOM      1  C   LIG    1        8.496  -1.416 -19.836  0.00  0.00    -0.267 A 
ATOM      2  C   LIG    1        8.151  -1.300 -18.523  0.00  0.00    +0.099 A 
ATOM      3 CL   LIG    1        8.294   0.232 -17.719  0.00  0.00    -0.034 Cl
ATOM      4  C   LIG    1        7.678  -2.423 -17.821  0.00  0.00    -0.216 A 
ATOM      5  C   LIG    1        7.272  -2.499 -16.461  0.00  0.00    +0.109 A 
ATOM      6  C   LIG    1        6.836  -3.673 -15.930  0.00  0.00    +0.018 A 
ATOM      7  C   LIG    1        6.770  -4.841 -16.696  0.00  0.00    +0.331 A 
ATOM      8  O   LIG    1        6.331  -6.002 -16.141  0.00  0.00    -0.621 OA
ATOM      9  C   LIG    1        7.157  -4.805 -18.025  0.00  0.00    -0.165 A 
ATOM     10  C   LIG    1        7.600  -3.620 -18.571  0.00  0.00    +0.011 A 
ATOM     11  S   LIG    1        8.168  -3.136 -20.183  0.00  0.00    +0.119 S 
ENDROOT
BRANCH   9  12
ATOM     12  N   LIG    1        7.095  -6.030 -18.852  0.00  0.00    +0.062 N 
ATOM     13  O   LIG    1        8.073  -6.732 -18.966  0.00  0.00    -0.160 OA
ATOM     14  O   LIG    1        6.067  -6.329 -19.415  0.00  0.00    -0.161 OA
ENDBRANCH   9  12
BRANCH   1  15
ATOM     15  C   LIG    1        9.005  -0.383 -20.742  0.00  0.00    +0.559 C 
ATOM     16  O   LIG    1       10.062   0.168 -20.502  0.00  0.00    -0.479 OA
BRANCH  15  17
ATOM     17  O   LIG    1        8.301  -0.044 -21.841  0.00  0.00    -0.344 OA
BRANCH  17  18
ATOM     18  C   LIG    1        6.916   0.253 -21.659  0.00  0.00    +0.392 C 
ATOM     19  C   LIG    1        6.131  -0.202 -22.890  0.00  0.00    +0.082 C 
BRANCH  18  20
ATOM     20  O   LIG    1        6.750   1.660 -21.480  0.00  0.00    -0.352 OA
BRANCH  20  21
ATOM     21  C   LIG    1        6.148   2.065 -20.350  0.00  0.00    +0.460 C 
ATOM     22  O   LIG    1        5.083   1.592 -20.031  0.00  0.00    -0.482 OA
BRANCH  21  24
ATOM     23  C   LIG    1        8.284   3.215 -19.841  0.00  0.00    +0.062 C 
ATOM     24  C   LIG    1        6.801   3.109 -19.481  0.00  0.00    +0.020 C 
ATOM     25  C   LIG    1        6.122   4.460 -19.710  0.00  0.00    +0.057 C 
ENDBRANCH  21  24
ENDBRANCH  20  21
ENDBRANCH  18  20
ENDBRANCH  17  18
ENDBRANCH  15  17
ENDBRANCH   1  15
BRANCH   6  26
ATOM     26  O   LIG    1        6.456  -3.711 -14.625  0.00  0.00    -0.478 OA
ATOM     27  H   LIG    1        5.801  -3.041 -14.385  0.00  0.00    +0.378 HD
ENDBRANCH   6  26
TORSDOF 8
ENDMDL
MODEL 8
REMARK VINA RESULT:      -5.3      7.831     11.479
REMARK  Name = CHEMBL1089538
REMARK                            x       y       z     vdW  Elec       q    Type
REMARK                         _______ _______ _______ _____ _____    ______ ____
ROOT
ATOM      1  C   LIG    1       -2.809 -12.253 -22.366  0.00  0.00    -0.267 A 
ATOM      2  C   LIG    1       -3.379 -11.550 -21.347  0.00  0.00    +0.099 A 
ATOM      3 CL   LIG    1       -3.891  -9.911 -21.601  0.00  0.00    -0.034 Cl
ATOM      4  C   LIG    1       -3.552 -12.155 -20.090  0.00  0.00    -0.216 A 
ATOM      5  C   LIG    1       -4.121 -11.591 -18.916  0.00  0.00    +0.109 A 
ATOM      6  C   LIG    1       -4.214 -12.317 -17.770  0.00  0.00    +0.018 A 
ATOM      7  C   LIG    1       -3.759 -13.638 -17.702  0.00  0.00    +0.331 A 
ATOM      8  O   LIG    1       -3.864 -14.342 -16.545  0.00  0.00    -0.621 OA
ATOM      9  C   LIG    1       -3.200 -14.221 -18.827  0.00  0.00    -0.165 A 
ATOM     10  C   LIG    1       -3.100 -13.493 -19.992  0.00  0.00    +0.011 A 
ATOM     11  S   LIG    1       -2.478 -13.840 -21.619  0.00  0.00    +0.119 S 
ENDROOT
BRANCH   9  12
ATOM     12  N   LIG    1       -2.712 -15.618 -18.776  0.00  0.00    +0.062 N 
ATOM     13  O   LIG    1       -1.593 -15.853 -18.382  0.00  0.00    -0.160 OA
ATOM     14  O   LIG    1       -3.432 -16.523 -19.129  0.00  0.00    -0.161 OA
ENDBRANCH   9  12
BRANCH   1  15
ATOM     15  C   LIG    1       -2.540 -11.816 -23.738  0.00  0.00    +0.559 C 
ATOM     16  O   LIG    1       -3.456 -11.697 -24.529  0.00  0.00    -0.479 OA
BRANCH  15  17
ATOM     17  O   LIG    1       -1.276 -11.547 -24.125  0.00  0.00    -0.344 OA
BRANCH  17  18
ATOM     18  C   LIG    1       -0.680 -10.355 -23.610  0.00  0.00    +0.392 C 
ATOM     19  C   LIG    1        0.162  -9.694 -24.702  0.00  0.00    +0.082 C 
BRANCH  18  20
ATOM     20  O   LIG    1        0.154 -10.683 -22.498  0.00  0.00    -0.352 OA
BRANCH  20  21
ATOM     21  C   LIG    1        0.443  -9.691 -21.639  0.00  0.00    +0.460 C 
ATOM     22  O   LIG    1        1.506  -9.680 -21.065  0.00  0.00    -0.482 OA
BRANCH  21  24
ATOM     23  C   LIG    1       -1.120  -8.724 -19.975  0.00  0.00    +0.062 C 
ATOM     24  C   LIG    1       -0.559  -8.593 -21.393  0.00  0.00    +0.020 C 
ATOM     25  C   LIG    1        0.125  -7.234 -21.547  0.00  0.00    +0.057 C 
ENDBRANCH  21  24
ENDBRANCH  20  21
ENDBRANCH  18  20
ENDBRANCH  17  18
ENDBRANCH  15  17
ENDBRANCH   1  15
BRANCH   6  26
ATOM     26  O   LIG    1       -4.764 -11.746 -16.664  0.00  0.00    -0.478 OA
ATOM     27  H   LIG    1       -4.185 -11.113 -16.218  0.00  0.00    +0.378 HD
ENDBRANCH   6  26
TORSDOF 8
ENDMDL
MODEL 9
REMARK VINA RESULT:      -5.2     10.723     13.043
REMARK  Name = CHEMBL1089538
REMARK                            x       y       z     vdW  Elec       q    Type
REMARK                         _______ _______ _______ _____ _____    ______ ____
ROOT
ATOM      1  C   LIG    1       -2.599 -15.017 -21.385  0.00  0.00    -0.267 A 
ATOM      2  C   LIG    1       -3.029 -15.207 -20.106  0.00  0.00    +0.099 A 
ATOM      3 CL   LIG    1       -3.191 -16.816 -19.474  0.00  0.00    -0.034 Cl
ATOM      4  C   LIG    1       -3.342 -14.099 -19.300  0.00  0.00    -0.216 A 
ATOM      5  C   LIG    1       -3.801 -14.094 -17.956  0.00  0.00    +0.109 A 
ATOM      6  C   LIG    1       -4.061 -12.925 -17.313  0.00  0.00    +0.018 A 
ATOM      7  C   LIG    1       -3.886 -11.689 -17.945  0.00  0.00    +0.331 A 
ATOM      8  O   LIG    1       -4.153 -10.534 -17.280  0.00  0.00    -0.621 OA
ATOM      9  C   LIG    1       -3.439 -11.654 -19.255  0.00  0.00    -0.165 A 
ATOM     10  C   LIG    1       -3.174 -12.834 -19.914  0.00  0.00    +0.011 A 
ATOM     11  S   LIG    1       -2.595 -13.239 -21.543  0.00  0.00    +0.119 S 
ENDROOT
BRANCH   9  12
ATOM     12  N   LIG    1       -3.248 -10.357 -19.942  0.00  0.00    +0.062 N 
ATOM     13  O   LIG    1       -4.022 -10.010 -20.803  0.00  0.00    -0.160 OA
ATOM     14  O   LIG    1       -2.318  -9.646 -19.642  0.00  0.00    -0.161 OA
ENDBRANCH   9  12
BRANCH   1  15
ATOM     15  C   LIG    1       -2.224 -16.023 -22.382  0.00  0.00    +0.559 C 
ATOM     16  O   LIG    1       -3.078 -16.532 -23.083  0.00  0.00    -0.479 OA
BRANCH  15  17
ATOM     17  O   LIG    1       -0.932 -16.384 -22.524  0.00  0.00    -0.344 OA
BRANCH  17  18
ATOM     18  C   LIG    1       -0.472 -17.475 -21.725  0.00  0.00    +0.392 C 
ATOM     19  C   LIG    1        1.052 -17.569 -21.820  0.00  0.00    +0.082 C 
BRANCH  18  20
ATOM     20  O   LIG    1       -1.055 -18.690 -22.196  0.00  0.00    -0.352 OA
BRANCH  20  21
ATOM     21  C   LIG    1       -0.813 -19.801 -21.481  0.00  0.00    +0.460 C 
ATOM     22  O   LIG    1       -0.311 -20.763 -22.012  0.00  0.00    -0.482 OA
BRANCH  21  24
ATOM     23  C   LIG    1       -2.296 -20.854 -19.797  0.00  0.00    +0.062 C 
ATOM     24  C   LIG    1       -1.167 -19.846 -20.017  0.00  0.00    +0.020 C 
ATOM     25  C   LIG    1        0.061 -20.271 -19.209  0.00  0.00    +0.057 C 
ENDBRANCH  21  24
ENDBRANCH  20  21
ENDBRANCH  18  20
ENDBRANCH  17  18
ENDBRANCH  15  17
ENDBRANCH   1  15
BRANCH   6  26
ATOM     26  O   LIG    1       -4.500 -12.957 -16.025  0.00  0.00    -0.478 OA
ATOM     27  H   LIG    1       -3.861 -12.623 -15.382  0.00  0.00    +0.378 HD
ENDBRANCH   6  26
TORSDOF 8
ENDMDL
