MODEL 1
REMARK VINA RESULT:      -7.1      0.000      0.000
REMARK  Name = CHEMBL1091983
REMARK                            x       y       z     vdW  Elec       q    Type
REMARK                         _______ _______ _______ _____ _____    ______ ____
ROOT
ATOM      1  C   LIG    1       -3.517 -13.526 -18.322  0.00  0.00    +0.135 A 
ATOM      2  C   LIG    1       -3.409 -12.480 -19.277  0.00  0.00    -0.086 A 
ATOM      3  C   LIG    1       -3.950 -11.227 -18.905  0.00  0.00    -0.088 A 
ATOM      4  S   LIG    1       -3.633 -10.202 -20.318  0.00  0.00    +0.217 S 
ATOM      5  C   LIG    1       -2.815 -11.415 -21.340  0.00  0.00    -0.181 A 
ATOM      6  C   LIG    1       -4.554 -11.020 -17.684  0.00  0.00    -0.014 A 
ATOM      7  C   LIG    1       -4.641 -12.063 -16.778  0.00  0.00    +0.196 A 
ATOM      8  C   LIG    1       -2.827 -12.530 -20.556  0.00  0.00    +0.034 A 
ATOM      9 CL   LIG    1       -2.126 -14.008 -21.136  0.00  0.00    +0.006 Cl
ATOM     10  C   LIG    1       -4.114 -13.313 -17.120  0.00  0.00    +0.097 A 
ENDROOT
BRANCH   6  11
ATOM     11  N   LIG    1       -5.105  -9.688 -17.342  0.00  0.00    +0.022 N 
ATOM     12  O   LIG    1       -4.513  -8.687 -17.671  0.00  0.00    -0.110 OA
ATOM     13  O   LIG    1       -6.145  -9.603 -16.732  0.00  0.00    -0.123 OA
ENDBRANCH   6  11
BRANCH   5  14
ATOM     14  C   LIG    1       -2.266 -11.253 -22.688  0.00  0.00    +0.557 C 
ATOM     15  O   LIG    1       -2.771 -11.842 -23.625  0.00  0.00    -0.455 OA
BRANCH  14  16
ATOM     16  O   LIG    1       -1.201 -10.451 -22.892  0.00  0.00    -0.339 OA
BRANCH  16  17
ATOM     17  C   LIG    1       -0.100 -10.593 -21.993  0.00  0.00    +0.381 C 
BRANCH  17  18
ATOM     18  C   LIG    1        0.270  -9.243 -21.433  0.00  0.00    -0.049 A 
ATOM     19  C   LIG    1       -0.573  -8.350 -20.940  0.00  0.00    +0.232 A 
ATOM     20  O   LIG    1        0.142  -7.270 -20.540  0.00  0.00    -0.238 OA
ATOM     21  C   LIG    1        1.438  -7.515 -20.793  0.00  0.00    +0.574 A 
ATOM     22  O   LIG    1        2.368  -6.766 -20.563  0.00  0.00    -0.413 OA
ATOM     23  O   LIG    1        1.524  -8.738 -21.342  0.00  0.00    -0.234 OA
ENDBRANCH  17  18
ENDBRANCH  16  17
ENDBRANCH  14  16
ENDBRANCH   5  14
BRANCH   7  24
ATOM     24  O   LIG    1       -5.232 -11.874 -15.569  0.00  0.00    -0.471 OA
ATOM     25  H   LIG    1       -6.195 -11.797 -15.610  0.00  0.00    +0.418 HD
ENDBRANCH   7  24
BRANCH  10  26
ATOM     26  O   LIG    1       -4.202 -14.337 -16.229  0.00  0.00    -0.473 OA
ATOM     27  H   LIG    1       -4.931 -14.949 -16.402  0.00  0.00    +0.407 HD
ENDBRANCH  10  26
TORSDOF 7
ENDMDL
MODEL 2
REMARK VINA RESULT:      -6.6      3.341      7.883
REMARK  Name = CHEMBL1091983
REMARK                            x       y       z     vdW  Elec       q    Type
REMARK                         _______ _______ _______ _____ _____    ______ ____
ROOT
ATOM      1  C   LIG    1       -1.505  -6.526 -24.104  0.00  0.00    +0.135 A 
ATOM      2  C   LIG    1       -1.277  -7.530 -23.125  0.00  0.00    -0.086 A 
ATOM      3  C   LIG    1       -0.102  -7.398 -22.348  0.00  0.00    -0.088 A 
ATOM      4  S   LIG    1       -0.163  -8.802 -21.264  0.00  0.00    +0.217 S 
ATOM      5  C   LIG    1       -1.696  -9.510 -21.843  0.00  0.00    -0.181 A 
ATOM      6  C   LIG    1        0.783  -6.357 -22.523  0.00  0.00    -0.014 A 
ATOM      7  C   LIG    1        0.528  -5.397 -23.487  0.00  0.00    +0.196 A 
ATOM      8  C   LIG    1       -2.078  -8.646 -22.825  0.00  0.00    +0.034 A 
ATOM      9 CL   LIG    1       -3.548  -8.925 -23.705  0.00  0.00    +0.006 Cl
ATOM     10  C   LIG    1       -0.626  -5.502 -24.270  0.00  0.00    +0.097 A 
ENDROOT
BRANCH   6  11
ATOM     11  N   LIG    1        1.999  -6.265 -21.683  0.00  0.00    +0.022 N 
ATOM     12  O   LIG    1        3.094  -6.320 -22.195  0.00  0.00    -0.110 OA
ATOM     13  O   LIG    1        1.898  -6.137 -20.485  0.00  0.00    -0.123 OA
ENDBRANCH   6  11
BRANCH   5  14
ATOM     14  C   LIG    1       -2.375 -10.722 -21.377  0.00  0.00    +0.557 C 
ATOM     15  O   LIG    1       -1.904 -11.816 -21.621  0.00  0.00    -0.455 OA
BRANCH  14  16
ATOM     16  O   LIG    1       -3.525 -10.624 -20.678  0.00  0.00    -0.339 OA
BRANCH  16  17
ATOM     17  C   LIG    1       -3.461  -9.963 -19.413  0.00  0.00    +0.381 C 
BRANCH  17  18
ATOM     18  C   LIG    1       -3.884 -10.917 -18.325  0.00  0.00    -0.049 A 
ATOM     19  C   LIG    1       -4.776 -10.669 -17.380  0.00  0.00    +0.232 A 
ATOM     20  O   LIG    1       -4.879 -11.771 -16.597  0.00  0.00    -0.238 OA
ATOM     21  C   LIG    1       -4.037 -12.700 -17.077  0.00  0.00    +0.574 A 
ATOM     22  O   LIG    1       -3.865 -13.815 -16.624  0.00  0.00    -0.413 OA
ATOM     23  O   LIG    1       -3.421 -12.179 -18.151  0.00  0.00    -0.234 OA
ENDBRANCH  17  18
ENDBRANCH  16  17
ENDBRANCH  14  16
ENDBRANCH   5  14
BRANCH   7  24
ATOM     24  O   LIG    1        1.391  -4.363 -23.671  0.00  0.00    -0.471 OA
ATOM     25  H   LIG    1        0.959  -3.503 -23.765  0.00  0.00    +0.418 HD
ENDBRANCH   7  24
BRANCH  10  26
ATOM     26  O   LIG    1       -0.875  -4.559 -25.217  0.00  0.00    -0.473 OA
ATOM     27  H   LIG    1       -1.516  -3.887 -24.946  0.00  0.00    +0.407 HD
ENDBRANCH  10  26
TORSDOF 7
ENDMDL
MODEL 3
REMARK VINA RESULT:      -6.5      6.705     11.034
REMARK  Name = CHEMBL1091983
REMARK                            x       y       z     vdW  Elec       q    Type
REMARK                         _______ _______ _______ _____ _____    ______ ____
ROOT
ATOM      1  C   LIG    1        7.664  -4.137 -19.416  0.00  0.00    +0.135 A 
ATOM      2  C   LIG    1        7.036  -5.311 -18.922  0.00  0.00    -0.086 A 
ATOM      3  C   LIG    1        6.691  -5.312 -17.550  0.00  0.00    -0.088 A 
ATOM      4  S   LIG    1        5.946  -6.905 -17.310  0.00  0.00    +0.217 S 
ATOM      5  C   LIG    1        6.101  -7.516 -18.980  0.00  0.00    -0.181 A 
ATOM      6  C   LIG    1        6.947  -4.237 -16.726  0.00  0.00    -0.014 A 
ATOM      7  C   LIG    1        7.560  -3.109 -17.243  0.00  0.00    +0.196 A 
ATOM      8  C   LIG    1        6.708  -6.483 -19.627  0.00  0.00    +0.034 A 
ATOM      9 CL   LIG    1        7.077  -6.612 -21.318  0.00  0.00    +0.006 Cl
ATOM     10  C   LIG    1        7.913  -3.081 -18.597  0.00  0.00    +0.097 A 
ENDROOT
BRANCH   6  11
ATOM     11  N   LIG    1        6.565  -4.288 -15.296  0.00  0.00    +0.022 N 
ATOM     12  O   LIG    1        6.957  -5.194 -14.597  0.00  0.00    -0.110 OA
ATOM     13  O   LIG    1        5.861  -3.425 -14.827  0.00  0.00    -0.123 OA
ENDBRANCH   6  11
BRANCH   5  14
ATOM     14  C   LIG    1        5.680  -8.811 -19.521  0.00  0.00    +0.557 C 
ATOM     15  O   LIG    1        6.512  -9.653 -19.801  0.00  0.00    -0.455 OA
BRANCH  14  16
ATOM     16  O   LIG    1        4.370  -9.070 -19.708  0.00  0.00    -0.339 OA
BRANCH  16  17
ATOM     17  C   LIG    1        3.864  -8.930 -21.037  0.00  0.00    +0.381 C 
BRANCH  17  18
ATOM     18  C   LIG    1        2.597  -8.114 -21.009  0.00  0.00    -0.049 A 
ATOM     19  C   LIG    1        2.524  -6.794 -20.971  0.00  0.00    +0.232 A 
ATOM     20  O   LIG    1        1.215  -6.442 -20.956  0.00  0.00    -0.238 OA
ATOM     21  C   LIG    1        0.485  -7.569 -20.988  0.00  0.00    +0.574 A 
ATOM     22  O   LIG    1       -0.730  -7.635 -20.986  0.00  0.00    -0.413 OA
ATOM     23  O   LIG    1        1.334  -8.607 -21.025  0.00  0.00    -0.234 OA
ENDBRANCH  17  18
ENDBRANCH  16  17
ENDBRANCH  14  16
ENDBRANCH   5  14
BRANCH   7  24
ATOM     24  O   LIG    1        7.818  -2.041 -16.444  0.00  0.00    -0.471 OA
ATOM     25  H   LIG    1        8.481  -2.212 -15.762  0.00  0.00    +0.418 HD
ENDBRANCH   7  24
BRANCH  10  26
ATOM     26  O   LIG    1        8.517  -1.973 -19.104  0.00  0.00    -0.473 OA
ATOM     27  H   LIG    1        9.471  -1.940 -18.951  0.00  0.00    +0.407 HD
ENDBRANCH  10  26
TORSDOF 7
ENDMDL
MODEL 4
REMARK VINA RESULT:      -6.1      7.024     11.010
REMARK  Name = CHEMBL1091983
REMARK                            x       y       z     vdW  Elec       q    Type
REMARK                         _______ _______ _______ _____ _____    ______ ____
ROOT
ATOM      1  C   LIG    1        6.617  -6.117 -16.795  0.00  0.00    +0.135 A 
ATOM      2  C   LIG    1        6.787  -6.100 -18.206  0.00  0.00    -0.086 A 
ATOM      3  C   LIG    1        7.240  -4.884 -18.771  0.00  0.00    -0.088 A 
ATOM      4  S   LIG    1        7.329  -5.243 -20.507  0.00  0.00    +0.217 S 
ATOM      5  C   LIG    1        6.783  -6.941 -20.449  0.00  0.00    -0.181 A 
ATOM      6  C   LIG    1        7.505  -3.769 -18.006  0.00  0.00    -0.014 A 
ATOM      7  C   LIG    1        7.328  -3.824 -16.634  0.00  0.00    +0.196 A 
ATOM      8  C   LIG    1        6.563  -7.144 -19.120  0.00  0.00    +0.034 A 
ATOM      9 CL   LIG    1        6.006  -8.688 -18.556  0.00  0.00    +0.006 Cl
ATOM     10  C   LIG    1        6.881  -5.013 -16.047  0.00  0.00    +0.097 A 
ENDROOT
BRANCH   6  11
ATOM     11  N   LIG    1        7.977  -2.521 -18.647  0.00  0.00    +0.022 N 
ATOM     12  O   LIG    1        7.225  -1.873 -19.337  0.00  0.00    -0.110 OA
ATOM     13  O   LIG    1        9.116  -2.151 -18.481  0.00  0.00    -0.123 OA
ENDBRANCH   6  11
BRANCH   5  14
ATOM     14  C   LIG    1        6.612  -7.884 -21.557  0.00  0.00    +0.557 C 
ATOM     15  O   LIG    1        7.513  -8.646 -21.852  0.00  0.00    -0.455 OA
BRANCH  14  16
ATOM     16  O   LIG    1        5.456  -7.908 -22.251  0.00  0.00    -0.339 OA
BRANCH  16  17
ATOM     17  C   LIG    1        4.450  -8.819 -21.805  0.00  0.00    +0.381 C 
BRANCH  17  18
ATOM     18  C   LIG    1        3.239  -8.046 -21.349  0.00  0.00    -0.049 A 
ATOM     19  C   LIG    1        3.205  -6.756 -21.059  0.00  0.00    +0.232 A 
ATOM     20  O   LIG    1        1.940  -6.438 -20.690  0.00  0.00    -0.238 OA
ATOM     21  C   LIG    1        1.197  -7.555 -20.759  0.00  0.00    +0.574 A 
ATOM     22  O   LIG    1        0.012  -7.644 -20.498  0.00  0.00    -0.413 OA
ATOM     23  O   LIG    1        1.994  -8.553 -21.171  0.00  0.00    -0.234 OA
ENDBRANCH  17  18
ENDBRANCH  16  17
ENDBRANCH  14  16
ENDBRANCH   5  14
BRANCH   7  24
ATOM     24  O   LIG    1        7.586  -2.733 -15.865  0.00  0.00    -0.471 OA
ATOM     25  H   LIG    1        7.682  -2.931 -14.923  0.00  0.00    +0.418 HD
ENDBRANCH   7  24
BRANCH  10  26
ATOM     26  O   LIG    1        6.706  -5.065 -14.700  0.00  0.00    -0.473 OA
ATOM     27  H   LIG    1        7.111  -4.328 -14.221  0.00  0.00    +0.407 HD
ENDBRANCH  10  26
TORSDOF 7
ENDMDL
MODEL 5
REMARK VINA RESULT:      -6.0      3.301      7.531
REMARK  Name = CHEMBL1091983
REMARK                            x       y       z     vdW  Elec       q    Type
REMARK                         _______ _______ _______ _____ _____    ______ ____
ROOT
ATOM      1  C   LIG    1        0.123  -7.505 -21.088  0.00  0.00    +0.135 A 
ATOM      2  C   LIG    1       -0.935  -8.048 -21.864  0.00  0.00    -0.086 A 
ATOM      3  C   LIG    1       -1.171  -7.443 -23.121  0.00  0.00    -0.088 A 
ATOM      4  S   LIG    1       -2.533  -8.371 -23.780  0.00  0.00    +0.217 S 
ATOM      5  C   LIG    1       -2.753  -9.506 -22.421  0.00  0.00    -0.181 A 
ATOM      6  C   LIG    1       -0.422  -6.380 -23.579  0.00  0.00    -0.014 A 
ATOM      7  C   LIG    1        0.602  -5.877 -22.794  0.00  0.00    +0.196 A 
ATOM      8  C   LIG    1       -1.785  -9.121 -21.543  0.00  0.00    +0.034 A 
ATOM      9 CL   LIG    1       -1.602  -9.952 -20.030  0.00  0.00    +0.006 Cl
ATOM     10  C   LIG    1        0.857  -6.457 -21.547  0.00  0.00    +0.097 A 
ENDROOT
BRANCH   6  11
ATOM     11  N   LIG    1       -0.709  -5.782 -24.903  0.00  0.00    +0.022 N 
ATOM     12  O   LIG    1        0.079  -5.916 -25.810  0.00  0.00    -0.110 OA
ATOM     13  O   LIG    1       -1.730  -5.159 -25.075  0.00  0.00    -0.123 OA
ENDBRANCH   6  11
BRANCH   5  14
ATOM     14  C   LIG    1       -3.734 -10.586 -22.283  0.00  0.00    +0.557 C 
ATOM     15  O   LIG    1       -4.919 -10.353 -22.421  0.00  0.00    -0.455 OA
BRANCH  14  16
ATOM     16  O   LIG    1       -3.322 -11.840 -22.003  0.00  0.00    -0.339 OA
BRANCH  16  17
ATOM     17  C   LIG    1       -4.307 -12.753 -21.517  0.00  0.00    +0.381 C 
BRANCH  17  18
ATOM     18  C   LIG    1       -4.010 -13.096 -20.080  0.00  0.00    -0.049 A 
ATOM     19  C   LIG    1       -3.337 -14.154 -19.658  0.00  0.00    +0.232 A 
ATOM     20  O   LIG    1       -3.282 -14.109 -18.304  0.00  0.00    -0.238 OA
ATOM     21  C   LIG    1       -3.932 -13.004 -17.902  0.00  0.00    +0.574 A 
ATOM     22  O   LIG    1       -4.083 -12.640 -16.751  0.00  0.00    -0.413 OA
ATOM     23  O   LIG    1       -4.380 -12.370 -18.997  0.00  0.00    -0.234 OA
ENDBRANCH  17  18
ENDBRANCH  16  17
ENDBRANCH  14  16
ENDBRANCH   5  14
BRANCH   7  24
ATOM     24  O   LIG    1        1.351  -4.831 -23.231  0.00  0.00    -0.471 OA
ATOM     25  H   LIG    1        1.299  -4.048 -22.667  0.00  0.00    +0.418 HD
ENDBRANCH   7  24
BRANCH  10  26
ATOM     26  O   LIG    1        1.862  -5.961 -20.777  0.00  0.00    -0.473 OA
ATOM     27  H   LIG    1        1.561  -5.400 -20.048  0.00  0.00    +0.407 HD
ENDBRANCH  10  26
TORSDOF 7
ENDMDL
MODEL 6
REMARK VINA RESULT:      -6.0      2.479      3.485
REMARK  Name = CHEMBL1091983
REMARK                            x       y       z     vdW  Elec       q    Type
REMARK                         _______ _______ _______ _____ _____    ______ ____
ROOT
ATOM      1  C   LIG    1       -4.042 -11.209 -17.461  0.00  0.00    +0.135 A 
ATOM      2  C   LIG    1       -3.444 -11.138 -18.748  0.00  0.00    -0.086 A 
ATOM      3  C   LIG    1       -3.191 -12.371 -19.395  0.00  0.00    -0.088 A 
ATOM      4  S   LIG    1       -2.459 -11.887 -20.938  0.00  0.00    +0.217 S 
ATOM      5  C   LIG    1       -2.503 -10.119 -20.702  0.00  0.00    -0.181 A 
ATOM      6  C   LIG    1       -3.503 -13.583 -18.817  0.00  0.00    -0.014 A 
ATOM      7  C   LIG    1       -4.086 -13.613 -17.562  0.00  0.00    +0.196 A 
ATOM      8  C   LIG    1       -3.069  -9.991 -19.468  0.00  0.00    +0.034 A 
ATOM      9 CL   LIG    1       -3.324  -8.415 -18.788  0.00  0.00    +0.006 Cl
ATOM     10  C   LIG    1       -4.347 -12.409 -16.899  0.00  0.00    +0.097 A 
ENDROOT
BRANCH   6  11
ATOM     11  N   LIG    1       -3.219 -14.846 -19.537  0.00  0.00    +0.022 N 
ATOM     12  O   LIG    1       -2.565 -15.712 -19.003  0.00  0.00    -0.110 OA
ATOM     13  O   LIG    1       -3.638 -15.010 -20.659  0.00  0.00    -0.123 OA
ENDBRANCH   6  11
BRANCH   5  14
ATOM     14  C   LIG    1       -2.044  -9.065 -21.609  0.00  0.00    +0.557 C 
ATOM     15  O   LIG    1       -2.576  -8.921 -22.694  0.00  0.00    -0.455 OA
BRANCH  14  16
ATOM     16  O   LIG    1       -1.031  -8.253 -21.243  0.00  0.00    -0.339 OA
BRANCH  16  17
ATOM     17  C   LIG    1       -0.579  -7.303 -22.209  0.00  0.00    +0.381 C 
BRANCH  17  18
ATOM     18  C   LIG    1        0.849  -6.922 -21.909  0.00  0.00    -0.049 A 
ATOM     19  C   LIG    1        1.642  -6.209 -22.692  0.00  0.00    +0.232 A 
ATOM     20  O   LIG    1        2.842  -6.081 -22.074  0.00  0.00    -0.238 OA
ATOM     21  C   LIG    1        2.772  -6.726 -20.899  0.00  0.00    +0.574 A 
ATOM     22  O   LIG    1        3.665  -6.820 -20.079  0.00  0.00    -0.413 OA
ATOM     23  O   LIG    1        1.539  -7.245 -20.788  0.00  0.00    -0.234 OA
ENDBRANCH  17  18
ENDBRANCH  16  17
ENDBRANCH  14  16
ENDBRANCH   5  14
BRANCH   7  24
ATOM     24  O   LIG    1       -4.400 -14.800 -16.979  0.00  0.00    -0.471 OA
ATOM     25  H   LIG    1       -4.489 -15.532 -17.604  0.00  0.00    +0.418 HD
ENDBRANCH   7  24
BRANCH  10  26
ATOM     26  O   LIG    1       -4.918 -12.440 -15.665  0.00  0.00    -0.473 OA
ATOM     27  H   LIG    1       -4.357 -12.830 -14.980  0.00  0.00    +0.407 HD
ENDBRANCH  10  26
TORSDOF 7
ENDMDL
MODEL 7
REMARK VINA RESULT:      -5.9     10.020     11.809
REMARK  Name = CHEMBL1091983
REMARK                            x       y       z     vdW  Elec       q    Type
REMARK                         _______ _______ _______ _____ _____    ______ ____
ROOT
ATOM      1  C   LIG    1       -5.655  -1.946 -20.673  0.00  0.00    +0.135 A 
ATOM      2  C   LIG    1       -4.984  -0.701 -20.535  0.00  0.00    -0.086 A 
ATOM      3  C   LIG    1       -5.324   0.075 -19.402  0.00  0.00    -0.088 A 
ATOM      4  S   LIG    1       -4.306   1.520 -19.570  0.00  0.00    +0.217 S 
ATOM      5  C   LIG    1       -3.478   1.079 -21.088  0.00  0.00    -0.181 A 
ATOM      6  C   LIG    1       -6.255  -0.342 -18.476  0.00  0.00    -0.014 A 
ATOM      7  C   LIG    1       -6.888  -1.562 -18.644  0.00  0.00    +0.196 A 
ATOM      8  C   LIG    1       -4.016  -0.137 -21.385  0.00  0.00    +0.034 A 
ATOM      9 CL   LIG    1       -3.510  -0.988 -22.811  0.00  0.00    +0.006 Cl
ATOM     10  C   LIG    1       -6.571  -2.350 -19.755  0.00  0.00    +0.097 A 
ENDROOT
BRANCH   6  11
ATOM     11  N   LIG    1       -6.574   0.508 -17.306  0.00  0.00    +0.022 N 
ATOM     12  O   LIG    1       -7.042   1.611 -17.471  0.00  0.00    -0.110 OA
ATOM     13  O   LIG    1       -6.366   0.100 -16.188  0.00  0.00    -0.123 OA
ENDBRANCH   6  11
BRANCH   5  14
ATOM     14  C   LIG    1       -2.469   1.837 -21.831  0.00  0.00    +0.557 C 
ATOM     15  O   LIG    1       -2.813   2.682 -22.635  0.00  0.00    -0.455 OA
BRANCH  14  16
ATOM     16  O   LIG    1       -1.158   1.598 -21.625  0.00  0.00    -0.339 OA
BRANCH  16  17
ATOM     17  C   LIG    1       -0.360   1.320 -22.776  0.00  0.00    +0.381 C 
BRANCH  17  18
ATOM     18  C   LIG    1        0.620   2.444 -22.992  0.00  0.00    -0.049 A 
ATOM     19  C   LIG    1        1.138   2.811 -24.154  0.00  0.00    +0.232 A 
ATOM     20  O   LIG    1        1.972   3.856 -23.934  0.00  0.00    -0.238 OA
ATOM     21  C   LIG    1        1.958   4.127 -22.618  0.00  0.00    +0.574 A 
ATOM     22  O   LIG    1        2.590   5.004 -22.061  0.00  0.00    -0.413 OA
ATOM     23  O   LIG    1        1.119   3.259 -22.031  0.00  0.00    -0.234 OA
ENDBRANCH  17  18
ENDBRANCH  16  17
ENDBRANCH  14  16
ENDBRANCH   5  14
BRANCH   7  24
ATOM     24  O   LIG    1       -7.807  -1.988 -17.738  0.00  0.00    -0.471 OA
ATOM     25  H   LIG    1       -7.800  -1.493 -16.908  0.00  0.00    +0.418 HD
ENDBRANCH   7  24
BRANCH  10  26
ATOM     26  O   LIG    1       -7.195  -3.548 -19.920  0.00  0.00    -0.473 OA
ATOM     27  H   LIG    1       -7.968  -3.513 -20.500  0.00  0.00    +0.407 HD
ENDBRANCH  10  26
TORSDOF 7
ENDMDL
MODEL 8
REMARK VINA RESULT:      -5.9      7.570      9.267
REMARK  Name = CHEMBL1091983
REMARK                            x       y       z     vdW  Elec       q    Type
REMARK                         _______ _______ _______ _____ _____    ______ ____
ROOT
ATOM      1  C   LIG    1       -6.711  -9.418 -25.129  0.00  0.00    +0.135 A 
ATOM      2  C   LIG    1       -7.943  -8.769 -24.847  0.00  0.00    -0.086 A 
ATOM      3  C   LIG    1       -8.942  -9.556 -24.227  0.00  0.00    -0.088 A 
ATOM      4  S   LIG    1      -10.300  -8.428 -24.039  0.00  0.00    +0.217 S 
ATOM      5  C   LIG    1       -9.538  -6.984 -24.760  0.00  0.00    -0.181 A 
ATOM      6  C   LIG    1       -8.744 -10.882 -23.911  0.00  0.00    -0.014 A 
ATOM      7  C   LIG    1       -7.530 -11.481 -24.200  0.00  0.00    +0.196 A 
ATOM      8  C   LIG    1       -8.299  -7.434 -25.105  0.00  0.00    +0.034 A 
ATOM      9 CL   LIG    1       -7.164  -6.361 -25.861  0.00  0.00    +0.006 Cl
ATOM     10  C   LIG    1       -6.524 -10.727 -24.813  0.00  0.00    +0.097 A 
ENDROOT
BRANCH   6  11
ATOM     11  N   LIG    1       -9.823 -11.662 -23.262  0.00  0.00    +0.022 N 
ATOM     12  O   LIG    1      -10.816 -11.957 -23.887  0.00  0.00    -0.110 OA
ATOM     13  O   LIG    1       -9.713 -12.002 -22.107  0.00  0.00    -0.123 OA
ENDBRANCH   6  11
BRANCH   5  14
ATOM     14  C   LIG    1      -10.106  -5.645 -24.939  0.00  0.00    +0.557 C 
ATOM     15  O   LIG    1      -10.433  -5.266 -26.047  0.00  0.00    -0.455 OA
BRANCH  14  16
ATOM     16  O   LIG    1      -10.265  -4.832 -23.874  0.00  0.00    -0.339 OA
BRANCH  16  17
ATOM     17  C   LIG    1       -9.082  -4.267 -23.306  0.00  0.00    +0.381 C 
BRANCH  17  18
ATOM     18  C   LIG    1       -9.036  -4.574 -21.831  0.00  0.00    -0.049 A 
ATOM     19  C   LIG    1       -9.880  -5.353 -21.174  0.00  0.00    +0.232 A 
ATOM     20  O   LIG    1       -9.506  -5.377 -19.871  0.00  0.00    -0.238 OA
ATOM     21  C   LIG    1       -8.418  -4.601 -19.739  0.00  0.00    +0.574 A 
ATOM     22  O   LIG    1       -7.810  -4.389 -18.708  0.00  0.00    -0.413 OA
ATOM     23  O   LIG    1       -8.119  -4.105 -20.950  0.00  0.00    -0.234 OA
ENDBRANCH  17  18
ENDBRANCH  16  17
ENDBRANCH  14  16
ENDBRANCH   5  14
BRANCH   7  24
ATOM     24  O   LIG    1       -7.319 -12.788 -23.893  0.00  0.00    -0.471 OA
ATOM     25  H   LIG    1       -7.651 -13.045 -23.023  0.00  0.00    +0.418 HD
ENDBRANCH   7  24
BRANCH  10  26
ATOM     26  O   LIG    1       -5.332 -11.316 -25.099  0.00  0.00    -0.473 OA
ATOM     27  H   LIG    1       -4.569 -10.882 -24.691  0.00  0.00    +0.407 HD
ENDBRANCH  10  26
TORSDOF 7
ENDMDL
MODEL 9
REMARK VINA RESULT:      -5.8      3.368      8.001
REMARK  Name = CHEMBL1091983
REMARK                            x       y       z     vdW  Elec       q    Type
REMARK                         _______ _______ _______ _____ _____    ______ ____
ROOT
ATOM      1  C   LIG    1       -1.427  -6.680 -23.913  0.00  0.00    +0.135 A 
ATOM      2  C   LIG    1       -1.120  -7.654 -22.926  0.00  0.00    -0.086 A 
ATOM      3  C   LIG    1        0.088  -7.471 -22.214  0.00  0.00    -0.088 A 
ATOM      4  S   LIG    1        0.125  -8.851 -21.098  0.00  0.00    +0.217 S 
ATOM      5  C   LIG    1       -1.413  -9.616 -21.583  0.00  0.00    -0.181 A 
ATOM      6  C   LIG    1        0.932  -6.409 -22.456  0.00  0.00    -0.014 A 
ATOM      7  C   LIG    1        0.600  -5.478 -23.425  0.00  0.00    +0.196 A 
ATOM      8  C   LIG    1       -1.870  -8.787 -22.562  0.00  0.00    +0.034 A 
ATOM      9 CL   LIG    1       -3.374  -9.127 -23.359  0.00  0.00    +0.006 Cl
ATOM     10  C   LIG    1       -0.589  -5.635 -24.146  0.00  0.00    +0.097 A 
ENDROOT
BRANCH   6  11
ATOM     11  N   LIG    1        2.186  -6.262 -21.681  0.00  0.00    +0.022 N 
ATOM     12  O   LIG    1        3.246  -6.175 -22.257  0.00  0.00    -0.110 OA
ATOM     13  O   LIG    1        2.150  -6.232 -20.474  0.00  0.00    -0.123 OA
ENDBRANCH   6  11
BRANCH   5  14
ATOM     14  C   LIG    1       -2.031 -10.836 -21.057  0.00  0.00    +0.557 C 
ATOM     15  O   LIG    1       -1.968 -11.872 -21.692  0.00  0.00    -0.455 OA
BRANCH  14  16
ATOM     16  O   LIG    1       -2.671 -10.811 -19.870  0.00  0.00    -0.339 OA
BRANCH  16  17
ATOM     17  C   LIG    1       -3.912 -11.514 -19.786  0.00  0.00    +0.381 C 
BRANCH  17  18
ATOM     18  C   LIG    1       -3.717 -12.786 -19.003  0.00  0.00    -0.049 A 
ATOM     19  C   LIG    1       -3.954 -12.947 -17.711  0.00  0.00    +0.232 A 
ATOM     20  O   LIG    1       -3.658 -14.228 -17.382  0.00  0.00    -0.238 OA
ATOM     21  C   LIG    1       -3.235 -14.852 -18.494  0.00  0.00    +0.574 A 
ATOM     22  O   LIG    1       -2.884 -16.014 -18.573  0.00  0.00    -0.413 OA
ATOM     23  O   LIG    1       -3.275 -13.967 -19.502  0.00  0.00    -0.234 OA
ENDBRANCH  17  18
ENDBRANCH  16  17
ENDBRANCH  14  16
ENDBRANCH   5  14
BRANCH   7  24
ATOM     24  O   LIG    1        1.420  -4.424 -23.675  0.00  0.00    -0.471 OA
ATOM     25  H   LIG    1        1.506  -3.809 -22.934  0.00  0.00    +0.418 HD
ENDBRANCH   7  24
BRANCH  10  26
ATOM     26  O   LIG    1       -0.914  -4.721 -25.099  0.00  0.00    -0.473 OA
ATOM     27  H   LIG    1       -0.187  -4.133 -25.346  0.00  0.00    +0.407 HD
ENDBRANCH  10  26
TORSDOF 7
ENDMDL
