MODEL 1
REMARK VINA RESULT:      -6.8      0.000      0.000
REMARK  Name = CHEMBL355017
REMARK                            x       y       z     vdW  Elec       q    Type
REMARK                         _______ _______ _______ _____ _____    ______ ____
ROOT
ATOM      1  C   LIG    1       -6.425  -1.246 -18.580  0.00  0.00    +0.129 A 
ATOM      2  C   LIG    1       -5.900  -1.969 -19.636  0.00  0.00    -0.034 A 
ATOM      3 CL   LIG    1       -6.518  -3.551 -19.995  0.00  0.00    -0.023 Cl
ATOM      4  C   LIG    1       -4.883  -1.434 -20.407  0.00  0.00    +0.094 A 
ATOM      5  C   LIG    1       -4.390  -0.172 -20.121  0.00  0.00    +0.098 A 
ATOM      6  C   LIG    1       -4.918   0.556 -19.059  0.00  0.00    +0.158 A 
ATOM      7  C   LIG    1       -5.936   0.014 -18.290  0.00  0.00    -0.056 A 
ENDROOT
BRANCH   7   8
ATOM      8  N   LIG    1       -6.500   0.785 -17.160  0.00  0.00    +0.035 N 
ATOM      9  O   LIG    1       -7.065   1.834 -17.366  0.00  0.00    -0.126 OA
ATOM     10  O   LIG    1       -6.394   0.367 -16.030  0.00  0.00    -0.155 OA
ENDBRANCH   7   8
BRANCH   5  11
ATOM     11  O   LIG    1       -3.389   0.356 -20.877  0.00  0.00    -0.468 OA
ATOM     12  H   LIG    1       -3.493   1.300 -21.062  0.00  0.00    +0.401 HD
ENDBRANCH   5  11
BRANCH   6  13
ATOM     13  O   LIG    1       -4.435   1.796 -18.775  0.00  0.00    -0.458 OA
ATOM     14  H   LIG    1       -4.768   2.167 -17.947  0.00  0.00    +0.407 HD
ENDBRANCH   6  13
TORSDOF 3
ENDMDL
MODEL 2
REMARK VINA RESULT:      -6.5      1.662      3.450
REMARK  Name = CHEMBL355017
REMARK                            x       y       z     vdW  Elec       q    Type
REMARK                         _______ _______ _______ _____ _____    ______ ____
ROOT
ATOM      1  C   LIG    1       -5.767  -2.075 -19.563  0.00  0.00    +0.129 A 
ATOM      2  C   LIG    1       -7.055  -2.281 -19.099  0.00  0.00    -0.034 A 
ATOM      3 CL   LIG    1       -7.872  -3.773 -19.444  0.00  0.00    -0.023 Cl
ATOM      4  C   LIG    1       -7.692  -1.300 -18.359  0.00  0.00    +0.094 A 
ATOM      5  C   LIG    1       -7.041  -0.109 -18.083  0.00  0.00    +0.098 A 
ATOM      6  C   LIG    1       -5.746   0.098 -18.550  0.00  0.00    +0.158 A 
ATOM      7  C   LIG    1       -5.113  -0.888 -19.290  0.00  0.00    -0.056 A 
ENDROOT
BRANCH   7   8
ATOM      8  N   LIG    1       -3.737  -0.671 -19.788  0.00  0.00    +0.035 N 
ATOM      9  O   LIG    1       -2.836  -1.381 -19.403  0.00  0.00    -0.126 OA
ATOM     10  O   LIG    1       -3.512   0.215 -20.579  0.00  0.00    -0.155 OA
ENDBRANCH   7   8
BRANCH   5  11
ATOM     11  O   LIG    1       -7.665   0.857 -17.358  0.00  0.00    -0.468 OA
ATOM     12  H   LIG    1       -8.416   0.536 -16.840  0.00  0.00    +0.401 HD
ENDBRANCH   5  11
BRANCH   6  13
ATOM     13  O   LIG    1       -5.103   1.266 -18.281  0.00  0.00    -0.458 OA
ATOM     14  H   LIG    1       -5.324   1.985 -18.888  0.00  0.00    +0.407 HD
ENDBRANCH   6  13
TORSDOF 3
ENDMDL
MODEL 3
REMARK VINA RESULT:      -6.4      2.330      2.899
REMARK  Name = CHEMBL355017
REMARK                            x       y       z     vdW  Elec       q    Type
REMARK                         _______ _______ _______ _____ _____    ______ ____
ROOT
ATOM      1  C   LIG    1       -4.993  -0.086 -18.740  0.00  0.00    +0.129 A 
ATOM      2  C   LIG    1       -4.503  -0.983 -19.673  0.00  0.00    -0.034 A 
ATOM      3 CL   LIG    1       -2.896  -0.788 -20.302  0.00  0.00    -0.023 Cl
ATOM      4  C   LIG    1       -5.291  -2.035 -20.105  0.00  0.00    +0.094 A 
ATOM      5  C   LIG    1       -6.572  -2.191 -19.604  0.00  0.00    +0.098 A 
ATOM      6  C   LIG    1       -7.065  -1.289 -18.665  0.00  0.00    +0.158 A 
ATOM      7  C   LIG    1       -6.271  -0.238 -18.236  0.00  0.00    -0.056 A 
ENDROOT
BRANCH   7   8
ATOM      8  N   LIG    1       -6.792   0.724 -17.239  0.00  0.00    +0.035 N 
ATOM      9  O   LIG    1       -7.464   1.662 -17.598  0.00  0.00    -0.126 OA
ATOM     10  O   LIG    1       -6.544   0.572 -16.065  0.00  0.00    -0.155 OA
ENDBRANCH   7   8
BRANCH   5  11
ATOM     11  O   LIG    1       -7.349  -3.224 -20.028  0.00  0.00    -0.468 OA
ATOM     12  H   LIG    1       -8.264  -3.181 -19.718  0.00  0.00    +0.401 HD
ENDBRANCH   5  11
BRANCH   6  13
ATOM     13  O   LIG    1       -8.323  -1.440 -18.170  0.00  0.00    -0.458 OA
ATOM     14  H   LIG    1       -8.915  -1.941 -18.748  0.00  0.00    +0.407 HD
ENDBRANCH   6  13
TORSDOF 3
ENDMDL
MODEL 4
REMARK VINA RESULT:      -6.0     10.514     11.440
REMARK  Name = CHEMBL355017
REMARK                            x       y       z     vdW  Elec       q    Type
REMARK                         _______ _______ _______ _____ _____    ______ ____
ROOT
ATOM      1  C   LIG    1       -4.126 -10.575 -18.744  0.00  0.00    +0.129 A 
ATOM      2  C   LIG    1       -3.510 -11.743 -19.157  0.00  0.00    -0.034 A 
ATOM      3 CL   LIG    1       -2.676 -11.792 -20.679  0.00  0.00    -0.023 Cl
ATOM      4  C   LIG    1       -3.556 -12.873 -18.359  0.00  0.00    +0.094 A 
ATOM      5  C   LIG    1       -4.222 -12.835 -17.145  0.00  0.00    +0.098 A 
ATOM      6  C   LIG    1       -4.841 -11.661 -16.729  0.00  0.00    +0.158 A 
ATOM      7  C   LIG    1       -4.791 -10.533 -17.533  0.00  0.00    -0.056 A 
ENDROOT
BRANCH   7   8
ATOM      8  N   LIG    1       -5.449  -9.282 -17.094  0.00  0.00    +0.035 N 
ATOM      9  O   LIG    1       -4.919  -8.215 -17.303  0.00  0.00    -0.126 OA
ATOM     10  O   LIG    1       -6.516  -9.326 -16.528  0.00  0.00    -0.155 OA
ENDBRANCH   7   8
BRANCH   5  11
ATOM     11  O   LIG    1       -4.270 -13.945 -16.359  0.00  0.00    -0.468 OA
ATOM     12  H   LIG    1       -5.167 -14.239 -16.149  0.00  0.00    +0.401 HD
ENDBRANCH   5  11
BRANCH   6  13
ATOM     13  O   LIG    1       -5.496 -11.620 -15.537  0.00  0.00    -0.458 OA
ATOM     14  H   LIG    1       -5.075 -12.142 -14.840  0.00  0.00    +0.407 HD
ENDBRANCH   6  13
TORSDOF 3
ENDMDL
MODEL 5
REMARK VINA RESULT:      -5.6     11.065     12.058
REMARK  Name = CHEMBL355017
REMARK                            x       y       z     vdW  Elec       q    Type
REMARK                         _______ _______ _______ _____ _____    ______ ____
ROOT
ATOM      1  C   LIG    1       -3.428 -11.688 -18.840  0.00  0.00    +0.129 A 
ATOM      2  C   LIG    1       -3.571 -10.347 -19.152  0.00  0.00    -0.034 A 
ATOM      3 CL   LIG    1       -2.825  -9.705 -20.582  0.00  0.00    -0.023 Cl
ATOM      4  C   LIG    1       -4.308  -9.516 -18.326  0.00  0.00    +0.094 A 
ATOM      5  C   LIG    1       -4.904 -10.028 -17.185  0.00  0.00    +0.098 A 
ATOM      6  C   LIG    1       -4.761 -11.376 -16.872  0.00  0.00    +0.158 A 
ATOM      7  C   LIG    1       -4.021 -12.202 -17.702  0.00  0.00    -0.056 A 
ENDROOT
BRANCH   7   8
ATOM      8  N   LIG    1       -3.866 -13.637 -17.372  0.00  0.00    +0.035 N 
ATOM      9  O   LIG    1       -3.811 -13.987 -16.216  0.00  0.00    -0.126 OA
ATOM     10  O   LIG    1       -3.792 -14.457 -18.257  0.00  0.00    -0.155 OA
ENDBRANCH   7   8
BRANCH   5  11
ATOM     11  O   LIG    1       -5.629  -9.213 -16.371  0.00  0.00    -0.468 OA
ATOM     12  H   LIG    1       -5.778  -8.328 -16.733  0.00  0.00    +0.401 HD
ENDBRANCH   5  11
BRANCH   6  13
ATOM     13  O   LIG    1       -5.344 -11.881 -15.752  0.00  0.00    -0.458 OA
ATOM     14  H   LIG    1       -4.719 -12.262 -15.120  0.00  0.00    +0.407 HD
ENDBRANCH   6  13
TORSDOF 3
ENDMDL
MODEL 6
REMARK VINA RESULT:      -5.3     10.686     11.851
REMARK  Name = CHEMBL355017
REMARK                            x       y       z     vdW  Elec       q    Type
REMARK                         _______ _______ _______ _____ _____    ______ ____
ROOT
ATOM      1  C   LIG    1       -4.709 -10.039 -18.308  0.00  0.00    +0.129 A 
ATOM      2  C   LIG    1       -5.448  -9.292 -17.407  0.00  0.00    -0.034 A 
ATOM      3 CL   LIG    1       -5.914  -7.668 -17.805  0.00  0.00    -0.023 Cl
ATOM      4  C   LIG    1       -5.817  -9.838 -16.190  0.00  0.00    +0.094 A 
ATOM      5  C   LIG    1       -5.445 -11.133 -15.872  0.00  0.00    +0.098 A 
ATOM      6  C   LIG    1       -4.702 -11.885 -16.778  0.00  0.00    +0.158 A 
ATOM      7  C   LIG    1       -4.336 -11.332 -17.995  0.00  0.00    -0.056 A 
ENDROOT
BRANCH   7   8
ATOM      8  N   LIG    1       -3.545 -12.128 -18.960  0.00  0.00    +0.035 N 
ATOM      9  O   LIG    1       -2.779 -11.574 -19.714  0.00  0.00    -0.126 OA
ATOM     10  O   LIG    1       -3.664 -13.330 -18.995  0.00  0.00    -0.155 OA
ENDBRANCH   7   8
BRANCH   5  11
ATOM     11  O   LIG    1       -5.805 -11.672 -14.675  0.00  0.00    -0.468 OA
ATOM     12  H   LIG    1       -5.141 -12.262 -14.294  0.00  0.00    +0.401 HD
ENDBRANCH   5  11
BRANCH   6  13
ATOM     13  O   LIG    1       -4.335 -13.157 -16.468  0.00  0.00    -0.458 OA
ATOM     14  H   LIG    1       -3.379 -13.300 -16.461  0.00  0.00    +0.407 HD
ENDBRANCH   6  13
TORSDOF 3
ENDMDL
MODEL 7
REMARK VINA RESULT:      -5.3     11.253     12.329
REMARK  Name = CHEMBL355017
REMARK                            x       y       z     vdW  Elec       q    Type
REMARK                         _______ _______ _______ _____ _____    ______ ____
ROOT
ATOM      1  C   LIG    1       -3.355 -12.852 -19.353  0.00  0.00    +0.129 A 
ATOM      2  C   LIG    1       -3.556 -13.910 -18.483  0.00  0.00    -0.034 A 
ATOM      3 CL   LIG    1       -3.111 -15.520 -18.959  0.00  0.00    -0.023 Cl
ATOM      4  C   LIG    1       -4.111 -13.687 -17.235  0.00  0.00    +0.094 A 
ATOM      5  C   LIG    1       -4.466 -12.403 -16.855  0.00  0.00    +0.098 A 
ATOM      6  C   LIG    1       -4.264 -11.340 -17.730  0.00  0.00    +0.158 A 
ATOM      7  C   LIG    1       -3.708 -11.570 -18.978  0.00  0.00    -0.056 A 
ENDROOT
BRANCH   7   8
ATOM      8  N   LIG    1       -3.492 -10.441 -19.911  0.00  0.00    +0.035 N 
ATOM      9  O   LIG    1       -3.967 -10.477 -21.022  0.00  0.00    -0.126 OA
ATOM     10  O   LIG    1       -2.840  -9.484 -19.562  0.00  0.00    -0.155 OA
ENDBRANCH   7   8
BRANCH   5  11
ATOM     11  O   LIG    1       -5.012 -12.182 -15.629  0.00  0.00    -0.468 OA
ATOM     12  H   LIG    1       -4.448 -12.455 -14.892  0.00  0.00    +0.401 HD
ENDBRANCH   5  11
BRANCH   6  13
ATOM     13  O   LIG    1       -4.611 -10.078 -17.360  0.00  0.00    -0.458 OA
ATOM     14  H   LIG    1       -5.165 -10.039 -16.568  0.00  0.00    +0.407 HD
ENDBRANCH   6  13
TORSDOF 3
ENDMDL
MODEL 8
REMARK VINA RESULT:      -4.9     12.615     13.685
REMARK  Name = CHEMBL355017
REMARK                            x       y       z     vdW  Elec       q    Type
REMARK                         _______ _______ _______ _____ _____    ______ ____
ROOT
ATOM      1  C   LIG    1       -3.216 -12.493 -19.523  0.00  0.00    +0.129 A 
ATOM      2  C   LIG    1       -3.544 -11.242 -19.031  0.00  0.00    -0.034 A 
ATOM      3 CL   LIG    1       -3.217  -9.824 -19.979  0.00  0.00    -0.023 Cl
ATOM      4  C   LIG    1       -4.134 -11.118 -17.785  0.00  0.00    +0.094 A 
ATOM      5  C   LIG    1       -4.396 -12.249 -17.029  0.00  0.00    +0.098 A 
ATOM      6  C   LIG    1       -4.065 -13.507 -17.523  0.00  0.00    +0.158 A 
ATOM      7  C   LIG    1       -3.474 -13.624 -18.772  0.00  0.00    -0.056 A 
ENDROOT
BRANCH   7   8
ATOM      8  N   LIG    1       -3.121 -14.960 -19.301  0.00  0.00    +0.035 N 
ATOM      9  O   LIG    1       -3.441 -15.268 -20.425  0.00  0.00    -0.126 OA
ATOM     10  O   LIG    1       -2.512 -15.743 -18.609  0.00  0.00    -0.155 OA
ENDBRANCH   7   8
BRANCH   5  11
ATOM     11  O   LIG    1       -4.974 -12.130 -15.803  0.00  0.00    -0.468 OA
ATOM     12  H   LIG    1       -5.191 -12.976 -15.388  0.00  0.00    +0.401 HD
ENDBRANCH   5  11
BRANCH   6  13
ATOM     13  O   LIG    1       -4.320 -14.619 -16.783  0.00  0.00    -0.458 OA
ATOM     14  H   LIG    1       -5.246 -14.713 -16.521  0.00  0.00    +0.407 HD
ENDBRANCH   6  13
TORSDOF 3
ENDMDL
MODEL 9
REMARK VINA RESULT:      -4.7     13.243     13.672
REMARK  Name = CHEMBL355017
REMARK                            x       y       z     vdW  Elec       q    Type
REMARK                         _______ _______ _______ _____ _____    ______ ____
ROOT
ATOM      1  C   LIG    1        7.521  -3.400 -17.395  0.00  0.00    +0.129 A 
ATOM      2  C   LIG    1        7.814  -3.492 -18.744  0.00  0.00    -0.034 A 
ATOM      3 CL   LIG    1        8.658  -2.199 -19.538  0.00  0.00    -0.023 Cl
ATOM      4  C   LIG    1        7.438  -4.614 -19.462  0.00  0.00    +0.094 A 
ATOM      5  C   LIG    1        6.764  -5.646 -18.830  0.00  0.00    +0.098 A 
ATOM      6  C   LIG    1        6.469  -5.554 -17.473  0.00  0.00    +0.158 A 
ATOM      7  C   LIG    1        6.849  -4.428 -16.760  0.00  0.00    -0.056 A 
ENDROOT
BRANCH   7   8
ATOM      8  N   LIG    1        6.536  -4.325 -15.316  0.00  0.00    +0.035 N 
ATOM      9  O   LIG    1        6.901  -5.192 -14.557  0.00  0.00    -0.126 OA
ATOM     10  O   LIG    1        5.916  -3.376 -14.898  0.00  0.00    -0.155 OA
ENDBRANCH   7   8
BRANCH   5  11
ATOM     11  O   LIG    1        6.392  -6.749 -19.533  0.00  0.00    -0.468 OA
ATOM     12  H   LIG    1        6.312  -6.600 -20.485  0.00  0.00    +0.401 HD
ENDBRANCH   5  11
BRANCH   6  13
ATOM     13  O   LIG    1        5.808  -6.565 -16.848  0.00  0.00    -0.458 OA
ATOM     14  H   LIG    1        4.864  -6.604 -17.055  0.00  0.00    +0.407 HD
ENDBRANCH   6  13
TORSDOF 3
ENDMDL
