MODEL 1
REMARK VINA RESULT:      -6.9      0.000      0.000
REMARK  Name = CHEMBL8649
REMARK                            x       y       z     vdW  Elec       q    Type
REMARK                         _______ _______ _______ _____ _____    ______ ____
ROOT
ATOM      1  C   LIG    1       -2.902 -13.393 -20.752  0.00  0.00    +0.384 C 
ATOM      2  O   LIG    1       -1.704 -13.399 -20.941  0.00  0.00    -0.447 OA
ENDROOT
BRANCH   1   3
ATOM      3  C   LIG    1       -3.434 -13.065 -19.422  0.00  0.00    -0.089 A 
ATOM      4  C   LIG    1       -3.708 -14.086 -18.505  0.00  0.00    -0.047 A 
ATOM      5  C   LIG    1       -4.206 -13.777 -17.259  0.00  0.00    +0.033 A 
ATOM      6  C   LIG    1       -4.439 -12.453 -16.910  0.00  0.00    +0.011 A 
ATOM      7  C   LIG    1       -4.169 -11.429 -17.819  0.00  0.00    +0.273 A 
ATOM      8  O   LIG    1       -4.399 -10.135 -17.472  0.00  0.00    -0.674 OA
ATOM      9  C   LIG    1       -3.664 -11.731 -19.067  0.00  0.00    -0.138 A 
BRANCH   9  10
ATOM     10  N   LIG    1       -3.371 -10.646 -20.030  0.00  0.00    +0.079 N 
ATOM     11  O   LIG    1       -2.323 -10.046 -19.966  0.00  0.00    -0.173 OA
ATOM     12  O   LIG    1       -4.180 -10.359 -20.882  0.00  0.00    -0.172 OA
ENDBRANCH   9  10
BRANCH   6  13
ATOM     13  O   LIG    1       -4.930 -12.154 -15.680  0.00  0.00    -0.481 OA
ATOM     14  H   LIG    1       -4.313 -12.330 -14.957  0.00  0.00    +0.372 HD
ENDBRANCH   6  13
ENDBRANCH   1   3
BRANCH   1  15
ATOM     15  C   LIG    1       -3.845 -13.720 -21.880  0.00  0.00    +0.042 C 
BRANCH  15  16
ATOM     16  C   LIG    1       -3.343 -14.963 -22.619  0.00  0.00    +0.027 C 
BRANCH  16  17
ATOM     17  C   LIG    1       -4.349 -16.103 -22.441  0.00  0.00    +0.018 C 
BRANCH  17  18
ATOM     18  C   LIG    1       -3.939 -16.961 -21.242  0.00  0.00    +0.063 C 
BRANCH  18  22
ATOM     19  C   LIG    1       -6.269 -20.541 -21.193  0.00  0.00    -0.010 A 
ATOM     20  C   LIG    1       -6.428 -19.627 -22.218  0.00  0.00    +0.001 A 
ATOM     21  C   LIG    1       -5.674 -18.469 -22.233  0.00  0.00    +0.003 A 
ATOM     22  C   LIG    1       -4.762 -18.223 -21.224  0.00  0.00    -0.076 A 
ATOM     23  C   LIG    1       -4.603 -19.138 -20.199  0.00  0.00    +0.003 A 
ATOM     24  C   LIG    1       -5.356 -20.297 -20.184  0.00  0.00    +0.001 A 
ENDBRANCH  18  22
ENDBRANCH  17  18
ENDBRANCH  16  17
ENDBRANCH  15  16
ENDBRANCH   1  15
TORSDOF 8
ENDMDL
MODEL 2
REMARK VINA RESULT:      -6.5      4.480      8.175
REMARK  Name = CHEMBL8649
REMARK                            x       y       z     vdW  Elec       q    Type
REMARK                         _______ _______ _______ _____ _____    ______ ____
ROOT
ATOM      1  C   LIG    1       -3.360 -11.022 -20.860  0.00  0.00    +0.384 C 
ATOM      2  O   LIG    1       -4.183 -11.010 -21.750  0.00  0.00    -0.447 OA
ENDROOT
BRANCH   1   3
ATOM      3  C   LIG    1       -3.754 -11.417 -19.501  0.00  0.00    -0.089 A 
ATOM      4  C   LIG    1       -4.163 -10.447 -18.578  0.00  0.00    -0.047 A 
ATOM      5  C   LIG    1       -4.532 -10.821 -17.306  0.00  0.00    +0.033 A 
ATOM      6  C   LIG    1       -4.500 -12.159 -16.934  0.00  0.00    +0.011 A 
ATOM      7  C   LIG    1       -4.093 -13.132 -17.847  0.00  0.00    +0.273 A 
ATOM      8  O   LIG    1       -4.063 -14.440 -17.478  0.00  0.00    -0.674 OA
ATOM      9  C   LIG    1       -3.727 -12.766 -19.126  0.00  0.00    -0.138 A 
BRANCH   9  10
ATOM     10  N   LIG    1       -3.301 -13.798 -20.099  0.00  0.00    +0.079 N 
ATOM     11  O   LIG    1       -4.104 -14.269 -20.872  0.00  0.00    -0.173 OA
ATOM     12  O   LIG    1       -2.151 -14.170 -20.121  0.00  0.00    -0.172 OA
ENDBRANCH   9  10
BRANCH   6  13
ATOM     13  O   LIG    1       -4.865 -12.520 -15.677  0.00  0.00    -0.481 OA
ATOM     14  H   LIG    1       -4.435 -12.006 -14.979  0.00  0.00    +0.372 HD
ENDBRANCH   6  13
ENDBRANCH   1   3
BRANCH   1  15
ATOM     15  C   LIG    1       -1.933 -10.632 -21.146  0.00  0.00    +0.042 C 
BRANCH  15  16
ATOM     16  C   LIG    1       -1.861  -9.128 -21.419  0.00  0.00    +0.027 C 
BRANCH  16  17
ATOM     17  C   LIG    1       -0.893  -8.476 -20.429  0.00  0.00    +0.018 C 
BRANCH  17  18
ATOM     18  C   LIG    1        0.076  -7.566 -21.188  0.00  0.00    +0.063 C 
BRANCH  18  22
ATOM     19  C   LIG    1        4.093  -8.583 -20.151  0.00  0.00    -0.010 A 
ATOM     20  C   LIG    1        3.111  -9.558 -20.152  0.00  0.00    +0.001 A 
ATOM     21  C   LIG    1        1.812  -9.228 -20.487  0.00  0.00    +0.003 A 
ATOM     22  C   LIG    1        1.493  -7.925 -20.821  0.00  0.00    -0.076 A 
ATOM     23  C   LIG    1        2.474  -6.951 -20.820  0.00  0.00    +0.003 A 
ATOM     24  C   LIG    1        3.774  -7.281 -20.485  0.00  0.00    +0.001 A 
ENDBRANCH  18  22
ENDBRANCH  17  18
ENDBRANCH  16  17
ENDBRANCH  15  16
ENDBRANCH   1  15
TORSDOF 8
ENDMDL
MODEL 3
REMARK VINA RESULT:      -6.1     13.070     15.900
REMARK  Name = CHEMBL8649
REMARK                            x       y       z     vdW  Elec       q    Type
REMARK                         _______ _______ _______ _____ _____    ______ ____
ROOT
ATOM      1  C   LIG    1       -1.540   0.082 -23.051  0.00  0.00    +0.384 C 
ATOM      2  O   LIG    1       -0.643  -0.633 -23.443  0.00  0.00    -0.447 OA
ENDROOT
BRANCH   1   3
ATOM      3  C   LIG    1       -2.155   1.057 -23.962  0.00  0.00    -0.089 A 
ATOM      4  C   LIG    1       -1.599   2.333 -24.104  0.00  0.00    -0.047 A 
ATOM      5  C   LIG    1       -2.177   3.244 -24.959  0.00  0.00    +0.033 A 
ATOM      6  C   LIG    1       -3.312   2.900 -25.682  0.00  0.00    +0.011 A 
ATOM      7  C   LIG    1       -3.873   1.630 -25.546  0.00  0.00    +0.273 A 
ATOM      8  O   LIG    1       -4.984   1.298 -26.256  0.00  0.00    -0.674 OA
ATOM      9  C   LIG    1       -3.296   0.709 -24.695  0.00  0.00    -0.138 A 
BRANCH   9  10
ATOM     10  N   LIG    1       -3.886  -0.641 -24.554  0.00  0.00    +0.079 N 
ATOM     11  O   LIG    1       -3.517  -1.541 -25.274  0.00  0.00    -0.173 OA
ATOM     12  O   LIG    1       -4.737  -0.845 -23.720  0.00  0.00    -0.172 OA
ENDBRANCH   9  10
BRANCH   6  13
ATOM     13  O   LIG    1       -3.877   3.803 -26.524  0.00  0.00    -0.481 OA
ATOM     14  H   LIG    1       -4.214   3.419 -27.344  0.00  0.00    +0.372 HD
ENDBRANCH   6  13
ENDBRANCH   1   3
BRANCH   1  15
ATOM     15  C   LIG    1       -2.025  -0.028 -21.628  0.00  0.00    +0.042 C 
BRANCH  15  16
ATOM     16  C   LIG    1       -2.829   1.223 -21.266  0.00  0.00    +0.027 C 
BRANCH  16  17
ATOM     17  C   LIG    1       -3.890   0.863 -20.222  0.00  0.00    +0.018 C 
BRANCH  17  18
ATOM     18  C   LIG    1       -3.746  -0.612 -19.838  0.00  0.00    +0.063 C 
BRANCH  18  22
ATOM     19  C   LIG    1       -7.583  -2.196 -18.831  0.00  0.00    -0.010 A 
ATOM     20  C   LIG    1       -7.200  -0.957 -18.352  0.00  0.00    +0.001 A 
ATOM     21  C   LIG    1       -5.958  -0.445 -18.678  0.00  0.00    +0.003 A 
ATOM     22  C   LIG    1       -5.100  -1.171 -19.482  0.00  0.00    -0.076 A 
ATOM     23  C   LIG    1       -5.483  -2.410 -19.961  0.00  0.00    +0.003 A 
ATOM     24  C   LIG    1       -6.725  -2.922 -19.636  0.00  0.00    +0.001 A 
ENDBRANCH  18  22
ENDBRANCH  17  18
ENDBRANCH  16  17
ENDBRANCH  15  16
ENDBRANCH   1  15
TORSDOF 8
ENDMDL
MODEL 4
REMARK VINA RESULT:      -5.9      3.720      6.886
REMARK  Name = CHEMBL8649
REMARK                            x       y       z     vdW  Elec       q    Type
REMARK                         _______ _______ _______ _____ _____    ______ ____
ROOT
ATOM      1  C   LIG    1       -3.312 -14.001 -21.174  0.00  0.00    +0.384 C 
ATOM      2  O   LIG    1       -4.130 -14.588 -21.850  0.00  0.00    -0.447 OA
ENDROOT
BRANCH   1   3
ATOM      3  C   LIG    1       -3.678 -13.514 -19.837  0.00  0.00    -0.089 A 
ATOM      4  C   LIG    1       -4.305 -12.271 -19.690  0.00  0.00    -0.047 A 
ATOM      5  C   LIG    1       -4.647 -11.818 -18.435  0.00  0.00    +0.033 A 
ATOM      6  C   LIG    1       -4.371 -12.591 -17.315  0.00  0.00    +0.011 A 
ATOM      7  C   LIG    1       -3.746 -13.830 -17.453  0.00  0.00    +0.273 A 
ATOM      8  O   LIG    1       -3.479 -14.583 -16.353  0.00  0.00    -0.674 OA
ATOM      9  C   LIG    1       -3.405 -14.294 -18.707  0.00  0.00    -0.138 A 
BRANCH   9  10
ATOM     10  N   LIG    1       -2.748 -15.612 -18.856  0.00  0.00    +0.079 N 
ATOM     11  O   LIG    1       -1.553 -15.714 -18.697  0.00  0.00    -0.173 OA
ATOM     12  O   LIG    1       -3.406 -16.587 -19.138  0.00  0.00    -0.172 OA
ENDBRANCH   9  10
BRANCH   6  13
ATOM     13  O   LIG    1       -4.711 -12.137 -16.081  0.00  0.00    -0.481 OA
ATOM     14  H   LIG    1       -5.659 -11.985 -15.965  0.00  0.00    +0.372 HD
ENDBRANCH   6  13
ENDBRANCH   1   3
BRANCH   1  15
ATOM     15  C   LIG    1       -1.921 -13.769 -21.705  0.00  0.00    +0.042 C 
BRANCH  15  16
ATOM     16  C   LIG    1       -1.649 -12.265 -21.781  0.00  0.00    +0.027 C 
BRANCH  16  17
ATOM     17  C   LIG    1       -2.455 -11.660 -22.933  0.00  0.00    +0.018 C 
BRANCH  17  18
ATOM     18  C   LIG    1       -3.196 -10.416 -22.437  0.00  0.00    +0.063 C 
BRANCH  18  22
ATOM     19  C   LIG    1       -0.366  -7.504 -21.111  0.00  0.00    -0.010 A 
ATOM     20  C   LIG    1       -0.738  -7.551 -22.442  0.00  0.00    +0.001 A 
ATOM     21  C   LIG    1       -1.653  -8.494 -22.871  0.00  0.00    +0.003 A 
ATOM     22  C   LIG    1       -2.197  -9.389 -21.970  0.00  0.00    -0.076 A 
ATOM     23  C   LIG    1       -1.826  -9.342 -20.638  0.00  0.00    +0.003 A 
ATOM     24  C   LIG    1       -0.911  -8.399 -20.210  0.00  0.00    +0.001 A 
ENDBRANCH  18  22
ENDBRANCH  17  18
ENDBRANCH  16  17
ENDBRANCH  15  16
ENDBRANCH   1  15
TORSDOF 8
ENDMDL
MODEL 5
REMARK VINA RESULT:      -5.8     11.028     13.312
REMARK  Name = CHEMBL8649
REMARK                            x       y       z     vdW  Elec       q    Type
REMARK                         _______ _______ _______ _____ _____    ______ ____
ROOT
ATOM      1  C   LIG    1        7.552  -5.933 -19.498  0.00  0.00    +0.384 C 
ATOM      2  O   LIG    1        8.668  -6.331 -19.760  0.00  0.00    -0.447 OA
ENDROOT
BRANCH   1   3
ATOM      3  C   LIG    1        7.270  -5.351 -18.179  0.00  0.00    -0.089 A 
ATOM      4  C   LIG    1        6.777  -6.157 -17.147  0.00  0.00    -0.047 A 
ATOM      5  C   LIG    1        6.513  -5.609 -15.912  0.00  0.00    +0.033 A 
ATOM      6  C   LIG    1        6.735  -4.256 -15.687  0.00  0.00    +0.011 A 
ATOM      7  C   LIG    1        7.226  -3.445 -16.711  0.00  0.00    +0.273 A 
ATOM      8  O   LIG    1        7.441  -2.122 -16.486  0.00  0.00    -0.674 OA
ATOM      9  C   LIG    1        7.498  -3.989 -17.950  0.00  0.00    -0.138 A 
BRANCH   9  10
ATOM     10  N   LIG    1        8.025  -3.131 -19.036  0.00  0.00    +0.079 N 
ATOM     11  O   LIG    1        9.218  -3.051 -19.219  0.00  0.00    -0.173 OA
ATOM     12  O   LIG    1        7.263  -2.511 -19.741  0.00  0.00    -0.172 OA
ENDBRANCH   9  10
BRANCH   6  13
ATOM     13  O   LIG    1        6.473  -3.722 -14.467  0.00  0.00    -0.481 OA
ATOM     14  H   LIG    1        6.580  -4.344 -13.734  0.00  0.00    +0.372 HD
ENDBRANCH   6  13
ENDBRANCH   1   3
BRANCH   1  15
ATOM     15  C   LIG    1        6.455  -6.036 -20.527  0.00  0.00    +0.042 C 
BRANCH  15  16
ATOM     16  C   LIG    1        5.948  -7.478 -20.588  0.00  0.00    +0.027 C 
BRANCH  16  17
ATOM     17  C   LIG    1        4.523  -7.542 -20.033  0.00  0.00    +0.018 C 
BRANCH  17  18
ATOM     18  C   LIG    1        3.574  -6.806 -20.981  0.00  0.00    +0.063 C 
BRANCH  18  22
ATOM     19  C   LIG    1       -0.251  -8.708 -20.922  0.00  0.00    -0.010 A 
ATOM     20  C   LIG    1        0.875  -9.407 -20.527  0.00  0.00    +0.001 A 
ATOM     21  C   LIG    1        2.113  -8.792 -20.547  0.00  0.00    +0.003 A 
ATOM     22  C   LIG    1        2.225  -7.478 -20.961  0.00  0.00    -0.076 A 
ATOM     23  C   LIG    1        1.099  -6.779 -21.355  0.00  0.00    +0.003 A 
ATOM     24  C   LIG    1       -0.139  -7.394 -21.335  0.00  0.00    +0.001 A 
ENDBRANCH  18  22
ENDBRANCH  17  18
ENDBRANCH  16  17
ENDBRANCH  15  16
ENDBRANCH   1  15
TORSDOF 8
ENDMDL
MODEL 6
REMARK VINA RESULT:      -5.7     13.171     16.104
REMARK  Name = CHEMBL8649
REMARK                            x       y       z     vdW  Elec       q    Type
REMARK                         _______ _______ _______ _____ _____    ______ ____
ROOT
ATOM      1  C   LIG    1       -1.403  -0.150 -22.466  0.00  0.00    +0.384 C 
ATOM      2  O   LIG    1       -0.344  -0.739 -22.426  0.00  0.00    -0.447 OA
ENDROOT
BRANCH   1   3
ATOM      3  C   LIG    1       -1.769   0.623 -23.661  0.00  0.00    -0.089 A 
ATOM      4  C   LIG    1       -2.929   0.302 -24.375  0.00  0.00    -0.047 A 
ATOM      5  C   LIG    1       -3.271   1.028 -25.494  0.00  0.00    +0.033 A 
ATOM      6  C   LIG    1       -2.466   2.078 -25.917  0.00  0.00    +0.011 A 
ATOM      7  C   LIG    1       -1.308   2.404 -25.211  0.00  0.00    +0.273 A 
ATOM      8  O   LIG    1       -0.524   3.433 -25.629  0.00  0.00    -0.674 OA
ATOM      9  C   LIG    1       -0.962   1.685 -24.085  0.00  0.00    -0.138 A 
BRANCH   9  10
ATOM     10  N   LIG    1        0.263   2.033 -23.330  0.00  0.00    +0.079 N 
ATOM     11  O   LIG    1        1.338   1.613 -23.693  0.00  0.00    -0.173 OA
ATOM     12  O   LIG    1        0.190   2.738 -22.350  0.00  0.00    -0.172 OA
ENDBRANCH   9  10
BRANCH   6  13
ATOM     13  O   LIG    1       -2.808   2.790 -27.021  0.00  0.00    -0.481 OA
ATOM     14  H   LIG    1       -3.085   2.244 -27.771  0.00  0.00    +0.372 HD
ENDBRANCH   6  13
ENDBRANCH   1   3
BRANCH   1  15
ATOM     15  C   LIG    1       -2.343  -0.209 -21.290  0.00  0.00    +0.042 C 
BRANCH  15  16
ATOM     16  C   LIG    1       -2.855   1.199 -20.975  0.00  0.00    +0.027 C 
BRANCH  16  17
ATOM     17  C   LIG    1       -4.198   1.102 -20.247  0.00  0.00    +0.018 C 
BRANCH  17  18
ATOM     18  C   LIG    1       -4.090   0.082 -19.112  0.00  0.00    +0.063 C 
BRANCH  18  22
ATOM     19  C   LIG    1       -7.429  -2.578 -19.265  0.00  0.00    -0.010 A 
ATOM     20  C   LIG    1       -6.272  -2.881 -19.959  0.00  0.00    +0.001 A 
ATOM     21  C   LIG    1       -5.192  -2.019 -19.910  0.00  0.00    +0.003 A 
ATOM     22  C   LIG    1       -5.268  -0.856 -19.167  0.00  0.00    -0.076 A 
ATOM     23  C   LIG    1       -6.425  -0.554 -18.473  0.00  0.00    +0.003 A 
ATOM     24  C   LIG    1       -7.505  -1.415 -18.522  0.00  0.00    +0.001 A 
ENDBRANCH  18  22
ENDBRANCH  17  18
ENDBRANCH  16  17
ENDBRANCH  15  16
ENDBRANCH   1  15
TORSDOF 8
ENDMDL
MODEL 7
REMARK VINA RESULT:      -5.6      6.121      8.311
REMARK  Name = CHEMBL8649
REMARK                            x       y       z     vdW  Elec       q    Type
REMARK                         _______ _______ _______ _____ _____    ______ ____
ROOT
ATOM      1  C   LIG    1        1.831  -9.379 -21.499  0.00  0.00    +0.384 C 
ATOM      2  O   LIG    1        1.922  -9.519 -22.700  0.00  0.00    -0.447 OA
ENDROOT
BRANCH   1   3
ATOM      3  C   LIG    1        3.037  -9.151 -20.692  0.00  0.00    -0.089 A 
ATOM      4  C   LIG    1        3.712 -10.234 -20.116  0.00  0.00    -0.047 A 
ATOM      5  C   LIG    1        4.843 -10.017 -19.361  0.00  0.00    +0.033 A 
ATOM      6  C   LIG    1        5.315  -8.726 -19.167  0.00  0.00    +0.011 A 
ATOM      7  C   LIG    1        4.648  -7.641 -19.736  0.00  0.00    +0.273 A 
ATOM      8  O   LIG    1        5.116  -6.379 -19.544  0.00  0.00    -0.674 OA
ATOM      9  C   LIG    1        3.518  -7.850 -20.500  0.00  0.00    -0.138 A 
BRANCH   9  10
ATOM     10  N   LIG    1        2.812  -6.701 -21.110  0.00  0.00    +0.079 N 
ATOM     11  O   LIG    1        3.165  -6.277 -22.187  0.00  0.00    -0.173 OA
ATOM     12  O   LIG    1        1.883  -6.186 -20.533  0.00  0.00    -0.172 OA
ENDBRANCH   9  10
BRANCH   6  13
ATOM     13  O   LIG    1        6.431  -8.519 -18.421  0.00  0.00    -0.481 OA
ATOM     14  H   LIG    1        6.513  -9.114 -17.663  0.00  0.00    +0.372 HD
ENDBRANCH   6  13
ENDBRANCH   1   3
BRANCH   1  15
ATOM     15  C   LIG    1        0.480  -9.440 -20.833  0.00  0.00    +0.042 C 
BRANCH  15  16
ATOM     16  C   LIG    1       -0.535  -8.658 -21.669  0.00  0.00    +0.027 C 
BRANCH  16  17
ATOM     17  C   LIG    1       -1.944  -9.182 -21.382  0.00  0.00    +0.018 C 
BRANCH  17  18
ATOM     18  C   LIG    1       -2.106  -9.407 -19.877  0.00  0.00    +0.063 C 
BRANCH  18  22
ATOM     19  C   LIG    1       -4.386 -12.957 -19.206  0.00  0.00    -0.010 A 
ATOM     20  C   LIG    1       -3.989 -12.622 -20.488  0.00  0.00    +0.001 A 
ATOM     21  C   LIG    1       -3.252 -11.473 -20.704  0.00  0.00    +0.003 A 
ATOM     22  C   LIG    1       -2.912 -10.659 -19.641  0.00  0.00    -0.076 A 
ATOM     23  C   LIG    1       -3.309 -10.994 -18.359  0.00  0.00    +0.003 A 
ATOM     24  C   LIG    1       -4.045 -12.143 -18.142  0.00  0.00    +0.001 A 
ENDBRANCH  18  22
ENDBRANCH  17  18
ENDBRANCH  16  17
ENDBRANCH  15  16
ENDBRANCH   1  15
TORSDOF 8
ENDMDL
MODEL 8
REMARK VINA RESULT:      -5.6      3.894      7.405
REMARK  Name = CHEMBL8649
REMARK                            x       y       z     vdW  Elec       q    Type
REMARK                         _______ _______ _______ _____ _____    ______ ____
ROOT
ATOM      1  C   LIG    1       -2.811 -13.297 -21.092  0.00  0.00    +0.384 C 
ATOM      2  O   LIG    1       -3.592 -13.555 -21.983  0.00  0.00    -0.447 OA
ENDROOT
BRANCH   1   3
ATOM      3  C   LIG    1       -3.301 -13.101 -19.720  0.00  0.00    -0.089 A 
ATOM      4  C   LIG    1       -3.491 -14.203 -18.879  0.00  0.00    -0.047 A 
ATOM      5  C   LIG    1       -3.949 -14.016 -17.594  0.00  0.00    +0.033 A 
ATOM      6  C   LIG    1       -4.224 -12.736 -17.130  0.00  0.00    +0.011 A 
ATOM      7  C   LIG    1       -4.038 -11.633 -17.963  0.00  0.00    +0.273 A 
ATOM      8  O   LIG    1       -4.308 -10.382 -17.504  0.00  0.00    -0.674 OA
ATOM      9  C   LIG    1       -3.573 -11.811 -19.250  0.00  0.00    -0.138 A 
BRANCH   9  10
ATOM     10  N   LIG    1       -3.369 -10.641 -20.133  0.00  0.00    +0.079 N 
ATOM     11  O   LIG    1       -2.379  -9.955 -20.010  0.00  0.00    -0.173 OA
ATOM     12  O   LIG    1       -4.190 -10.369 -20.977  0.00  0.00    -0.172 OA
ENDBRANCH   9  10
BRANCH   6  13
ATOM     13  O   LIG    1       -4.676 -12.559 -15.862  0.00  0.00    -0.481 OA
ATOM     14  H   LIG    1       -4.249 -11.830 -15.391  0.00  0.00    +0.372 HD
ENDBRANCH   6  13
ENDBRANCH   1   3
BRANCH   1  15
ATOM     15  C   LIG    1       -1.339 -13.177 -21.390  0.00  0.00    +0.042 C 
BRANCH  15  16
ATOM     16  C   LIG    1       -1.125 -12.130 -22.485  0.00  0.00    +0.027 C 
BRANCH  16  17
ATOM     17  C   LIG    1        0.121 -11.301 -22.163  0.00  0.00    +0.018 C 
BRANCH  17  18
ATOM     18  C   LIG    1        0.080  -9.990 -22.952  0.00  0.00    +0.063 C 
BRANCH  18  22
ATOM     19  C   LIG    1        2.236  -6.979 -20.823  0.00  0.00    -0.010 A 
ATOM     20  C   LIG    1        2.617  -8.305 -20.721  0.00  0.00    +0.001 A 
ATOM     21  C   LIG    1        1.919  -9.279 -21.410  0.00  0.00    +0.003 A 
ATOM     22  C   LIG    1        0.840  -8.929 -22.200  0.00  0.00    -0.076 A 
ATOM     23  C   LIG    1        0.459  -7.603 -22.301  0.00  0.00    +0.003 A 
ATOM     24  C   LIG    1        1.158  -6.629 -21.613  0.00  0.00    +0.001 A 
ENDBRANCH  18  22
ENDBRANCH  17  18
ENDBRANCH  16  17
ENDBRANCH  15  16
ENDBRANCH   1  15
TORSDOF 8
ENDMDL
MODEL 9
REMARK VINA RESULT:      -5.5      5.002      6.842
REMARK  Name = CHEMBL8649
REMARK                            x       y       z     vdW  Elec       q    Type
REMARK                         _______ _______ _______ _____ _____    ______ ____
ROOT
ATOM      1  C   LIG    1       -5.682 -10.895 -24.329  0.00  0.00    +0.384 C 
ATOM      2  O   LIG    1       -5.419 -11.230 -25.464  0.00  0.00    -0.447 OA
ENDROOT
BRANCH   1   3
ATOM      3  C   LIG    1       -6.842 -11.479 -23.641  0.00  0.00    -0.089 A 
ATOM      4  C   LIG    1       -6.679 -12.598 -22.816  0.00  0.00    -0.047 A 
ATOM      5  C   LIG    1       -7.768 -13.142 -22.173  0.00  0.00    +0.033 A 
ATOM      6  C   LIG    1       -9.028 -12.584 -22.340  0.00  0.00    +0.011 A 
ATOM      7  C   LIG    1       -9.200 -11.469 -23.161  0.00  0.00    +0.273 A 
ATOM      8  O   LIG    1      -10.436 -10.927 -23.322  0.00  0.00    -0.674 OA
ATOM      9  C   LIG    1       -8.112 -10.914 -23.805  0.00  0.00    -0.138 A 
BRANCH   9  10
ATOM     10  N   LIG    1       -8.291  -9.727 -24.672  0.00  0.00    +0.079 N 
ATOM     11  O   LIG    1       -8.519  -9.867 -25.851  0.00  0.00    -0.173 OA
ATOM     12  O   LIG    1       -8.208  -8.617 -24.200  0.00  0.00    -0.172 OA
ENDBRANCH   9  10
BRANCH   6  13
ATOM     13  O   LIG    1      -10.098 -13.126 -21.703  0.00  0.00    -0.481 OA
ATOM     14  H   LIG    1       -9.934 -13.341 -20.774  0.00  0.00    +0.372 HD
ENDBRANCH   6  13
ENDBRANCH   1   3
BRANCH   1  15
ATOM     15  C   LIG    1       -4.821  -9.880 -23.623  0.00  0.00    +0.042 C 
BRANCH  15  16
ATOM     16  C   LIG    1       -3.605 -10.580 -23.013  0.00  0.00    +0.027 C 
BRANCH  16  17
ATOM     17  C   LIG    1       -3.778 -10.672 -21.494  0.00  0.00    +0.018 C 
BRANCH  17  18
ATOM     18  C   LIG    1       -3.294 -12.040 -21.008  0.00  0.00    +0.063 C 
BRANCH  18  22
ATOM     19  C   LIG    1       -4.306 -12.523 -16.886  0.00  0.00    -0.010 A 
ATOM     20  C   LIG    1       -4.041 -13.632 -17.667  0.00  0.00    +0.001 A 
ATOM     21  C   LIG    1       -3.714 -13.476 -19.001  0.00  0.00    +0.003 A 
ATOM     22  C   LIG    1       -3.652 -12.211 -19.554  0.00  0.00    -0.076 A 
ATOM     23  C   LIG    1       -3.918 -11.101 -18.773  0.00  0.00    +0.003 A 
ATOM     24  C   LIG    1       -4.244 -11.257 -17.439  0.00  0.00    +0.001 A 
ENDBRANCH  18  22
ENDBRANCH  17  18
ENDBRANCH  16  17
ENDBRANCH  15  16
ENDBRANCH   1  15
TORSDOF 8
ENDMDL
