MODEL 1
REMARK VINA RESULT:      -8.2      0.000      0.000
REMARK  Name = CHEMBL160038
REMARK                            x       y       z     vdW  Elec       q    Type
REMARK                         _______ _______ _______ _____ _____    ______ ____
ROOT
ATOM      1  C   LIG    1       -6.196  -2.243 -19.204  0.00  0.00    -0.293 A 
ATOM      2  C   LIG    1       -6.734  -1.366 -18.254  0.00  0.00    +0.197 A 
ATOM      3  C   LIG    1       -6.256  -0.079 -18.156  0.00  0.00    -0.203 A 
ATOM      4  C   LIG    1       -5.240   0.354 -18.999  0.00  0.00    +0.309 A 
ATOM      5  O   LIG    1       -4.772   1.624 -18.898  0.00  0.00    -0.605 OA
ATOM      6  C   LIG    1       -4.699  -0.513 -19.948  0.00  0.00    -0.025 A 
ATOM      7  C   LIG    1       -5.169  -1.807 -20.050  0.00  0.00    +0.094 A 
ENDROOT
BRANCH   3   8
ATOM      8  N   LIG    1       -6.826   0.846 -17.151  0.00  0.00    +0.069 N 
ATOM      9  O   LIG    1       -6.548   0.715 -15.982  0.00  0.00    -0.155 OA
ATOM     10  O   LIG    1       -7.570   1.733 -17.500  0.00  0.00    -0.247 OA
ENDBRANCH   3   8
BRANCH   1  11
ATOM     11  C   LIG    1       -6.704  -3.617 -19.310  0.00  0.00    +0.412 C 
ATOM     12  O   LIG    1       -5.929  -4.551 -19.325  0.00  0.00    -0.472 OA
BRANCH  11  13
ATOM     13  C   LIG    1       -8.187  -3.867 -19.402  0.00  0.00    +0.082 C 
BRANCH  13  17
ATOM     14  C   LIG    1       -9.209  -4.892 -23.421  0.00  0.00    -0.008 A 
ATOM     15  C   LIG    1       -8.516  -3.724 -23.160  0.00  0.00    -0.000 A 
ATOM     16  C   LIG    1       -8.186  -3.393 -21.860  0.00  0.00    +0.011 A 
ATOM     17  C   LIG    1       -8.548  -4.228 -20.820  0.00  0.00    -0.064 A 
ATOM     18  C   LIG    1       -9.241  -5.396 -21.080  0.00  0.00    +0.011 A 
ATOM     19  C   LIG    1       -9.570  -5.728 -22.381  0.00  0.00    -0.001 A 
ENDBRANCH  13  17
ENDBRANCH  11  13
ENDBRANCH   1  11
BRANCH   6  20
ATOM     20  O   LIG    1       -3.705  -0.084 -20.772  0.00  0.00    -0.479 OA
ATOM     21  H   LIG    1       -3.495   0.855 -20.679  0.00  0.00    +0.370 HD
ENDBRANCH   6  20
TORSDOF 5
ENDMDL
MODEL 2
REMARK VINA RESULT:      -7.0      3.147      6.115
REMARK  Name = CHEMBL160038
REMARK                            x       y       z     vdW  Elec       q    Type
REMARK                         _______ _______ _______ _____ _____    ______ ____
ROOT
ATOM      1  C   LIG    1       -4.614  -0.279 -19.570  0.00  0.00    -0.293 A 
ATOM      2  C   LIG    1       -5.269  -1.511 -19.697  0.00  0.00    +0.197 A 
ATOM      3  C   LIG    1       -6.501  -1.700 -19.112  0.00  0.00    -0.203 A 
ATOM      4  C   LIG    1       -7.098  -0.670 -18.396  0.00  0.00    +0.309 A 
ATOM      5  O   LIG    1       -8.313  -0.862 -17.822  0.00  0.00    -0.605 OA
ATOM      6  C   LIG    1       -6.454   0.560 -18.266  0.00  0.00    -0.025 A 
ATOM      7  C   LIG    1       -5.216   0.756 -18.844  0.00  0.00    +0.094 A 
ENDROOT
BRANCH   3   8
ATOM      8  N   LIG    1       -7.190  -3.002 -19.248  0.00  0.00    +0.069 N 
ATOM      9  O   LIG    1       -7.820  -3.252 -20.249  0.00  0.00    -0.155 OA
ATOM     10  O   LIG    1       -7.125  -3.817 -18.356  0.00  0.00    -0.247 OA
ENDBRANCH   3   8
BRANCH   1  11
ATOM     11  C   LIG    1       -3.300  -0.075 -20.193  0.00  0.00    +0.412 C 
ATOM     12  O   LIG    1       -2.438  -0.921 -20.081  0.00  0.00    -0.472 OA
BRANCH  11  13
ATOM     13  C   LIG    1       -3.021   1.186 -20.969  0.00  0.00    +0.082 C 
BRANCH  13  17
ATOM     14  C   LIG    1       -1.143   0.186 -24.673  0.00  0.00    -0.008 A 
ATOM     15  C   LIG    1       -0.420   0.823 -23.681  0.00  0.00    -0.000 A 
ATOM     16  C   LIG    1       -1.028   1.147 -22.483  0.00  0.00    +0.011 A 
ATOM     17  C   LIG    1       -2.359   0.834 -22.276  0.00  0.00    -0.064 A 
ATOM     18  C   LIG    1       -3.081   0.197 -23.268  0.00  0.00    +0.011 A 
ATOM     19  C   LIG    1       -2.473  -0.128 -24.466  0.00  0.00    -0.001 A 
ENDBRANCH  13  17
ENDBRANCH  11  13
ENDBRANCH   1  11
BRANCH   6  20
ATOM     20  O   LIG    1       -7.044   1.565 -17.564  0.00  0.00    -0.479 OA
ATOM     21  H   LIG    1       -7.895   1.849 -17.923  0.00  0.00    +0.370 HD
ENDBRANCH   6  20
TORSDOF 5
ENDMDL
MODEL 3
REMARK VINA RESULT:      -6.9      8.487     10.243
REMARK  Name = CHEMBL160038
REMARK                            x       y       z     vdW  Elec       q    Type
REMARK                         _______ _______ _______ _____ _____    ______ ____
ROOT
ATOM      1  C   LIG    1       -3.641 -11.535 -19.273  0.00  0.00    -0.293 A 
ATOM      2  C   LIG    1       -4.279 -10.383 -18.796  0.00  0.00    +0.197 A 
ATOM      3  C   LIG    1       -4.871 -10.389 -17.552  0.00  0.00    -0.203 A 
ATOM      4  C   LIG    1       -4.836 -11.536 -16.768  0.00  0.00    +0.309 A 
ATOM      5  O   LIG    1       -5.420 -11.536 -15.544  0.00  0.00    -0.605 OA
ATOM      6  C   LIG    1       -4.202 -12.687 -17.237  0.00  0.00    -0.025 A 
ATOM      7  C   LIG    1       -3.611 -12.691 -18.484  0.00  0.00    +0.094 A 
ENDROOT
BRANCH   3   8
ATOM      8  N   LIG    1       -5.544  -9.172 -17.050  0.00  0.00    +0.069 N 
ATOM      9  O   LIG    1       -6.619  -9.257 -16.502  0.00  0.00    -0.155 OA
ATOM     10  O   LIG    1       -5.020  -8.090 -17.187  0.00  0.00    -0.247 OA
ENDBRANCH   3   8
BRANCH   1  11
ATOM     11  C   LIG    1       -3.010 -11.532 -20.599  0.00  0.00    +0.412 C 
ATOM     12  O   LIG    1       -2.203 -12.391 -20.889  0.00  0.00    -0.472 OA
BRANCH  11  13
ATOM     13  C   LIG    1       -3.362 -10.461 -21.599  0.00  0.00    +0.082 C 
BRANCH  13  17
ATOM     14  C   LIG    1       -0.300  -7.483 -21.634  0.00  0.00    -0.008 A 
ATOM     15  C   LIG    1       -1.086  -7.680 -22.755  0.00  0.00    -0.000 A 
ATOM     16  C   LIG    1       -2.076  -8.644 -22.743  0.00  0.00    +0.011 A 
ATOM     17  C   LIG    1       -2.281  -9.411 -21.612  0.00  0.00    -0.064 A 
ATOM     18  C   LIG    1       -1.496  -9.215 -20.491  0.00  0.00    +0.011 A 
ATOM     19  C   LIG    1       -0.506  -8.250 -20.502  0.00  0.00    -0.001 A 
ENDBRANCH  13  17
ENDBRANCH  11  13
ENDBRANCH   1  11
BRANCH   6  20
ATOM     20  O   LIG    1       -4.170 -13.806 -16.465  0.00  0.00    -0.479 OA
ATOM     21  H   LIG    1       -3.279 -14.094 -16.224  0.00  0.00    +0.370 HD
ENDBRANCH   6  20
TORSDOF 5
ENDMDL
MODEL 4
REMARK VINA RESULT:      -6.5     10.204     12.124
REMARK  Name = CHEMBL160038
REMARK                            x       y       z     vdW  Elec       q    Type
REMARK                         _______ _______ _______ _____ _____    ______ ____
ROOT
ATOM      1  C   LIG    1       -3.636 -13.140 -18.271  0.00  0.00    -0.293 A 
ATOM      2  C   LIG    1       -3.360 -12.366 -19.405  0.00  0.00    +0.197 A 
ATOM      3  C   LIG    1       -3.603 -11.011 -19.390  0.00  0.00    -0.203 A 
ATOM      4  C   LIG    1       -4.121 -10.408 -18.250  0.00  0.00    +0.309 A 
ATOM      5  O   LIG    1       -4.359  -9.072 -18.242  0.00  0.00    -0.605 OA
ATOM      6  C   LIG    1       -4.398 -11.171 -17.117  0.00  0.00    -0.025 A 
ATOM      7  C   LIG    1       -4.162 -12.531 -17.125  0.00  0.00    +0.094 A 
ENDROOT
BRANCH   3   8
ATOM      8  N   LIG    1       -3.311 -10.196 -20.589  0.00  0.00    +0.069 N 
ATOM      9  O   LIG    1       -4.066 -10.216 -21.533  0.00  0.00    -0.155 OA
ATOM     10  O   LIG    1       -2.316  -9.509 -20.626  0.00  0.00    -0.247 OA
ENDBRANCH   3   8
BRANCH   1  11
ATOM     11  C   LIG    1       -3.378 -14.586 -18.283  0.00  0.00    +0.412 C 
ATOM     12  O   LIG    1       -3.899 -15.302 -17.455  0.00  0.00    -0.472 OA
BRANCH  11  13
ATOM     13  C   LIG    1       -2.464 -15.179 -19.325  0.00  0.00    +0.082 C 
BRANCH  13  17
ATOM     14  C   LIG    1       -4.772 -17.458 -22.105  0.00  0.00    -0.008 A 
ATOM     15  C   LIG    1       -4.276 -18.058 -20.962  0.00  0.00    -0.000 A 
ATOM     16  C   LIG    1       -3.529 -17.321 -20.063  0.00  0.00    +0.011 A 
ATOM     17  C   LIG    1       -3.277 -15.984 -20.306  0.00  0.00    -0.064 A 
ATOM     18  C   LIG    1       -3.772 -15.383 -21.449  0.00  0.00    +0.011 A 
ATOM     19  C   LIG    1       -4.520 -16.120 -22.348  0.00  0.00    -0.001 A 
ENDBRANCH  13  17
ENDBRANCH  11  13
ENDBRANCH   1  11
BRANCH   6  20
ATOM     20  O   LIG    1       -4.905 -10.575 -16.004  0.00  0.00    -0.479 OA
ATOM     21  H   LIG    1       -5.454 -11.157 -15.461  0.00  0.00    +0.370 HD
ENDBRANCH   6  20
TORSDOF 5
ENDMDL
MODEL 5
REMARK VINA RESULT:      -6.2      3.730      5.995
REMARK  Name = CHEMBL160038
REMARK                            x       y       z     vdW  Elec       q    Type
REMARK                         _______ _______ _______ _____ _____    ______ ____
ROOT
ATOM      1  C   LIG    1       -2.971  -0.020 -21.411  0.00  0.00    -0.293 A 
ATOM      2  C   LIG    1       -1.762   0.673 -21.546  0.00  0.00    +0.197 A 
ATOM      3  C   LIG    1       -1.336   1.078 -22.791  0.00  0.00    -0.203 A 
ATOM      4  C   LIG    1       -2.103   0.801 -23.916  0.00  0.00    +0.309 A 
ATOM      5  O   LIG    1       -1.678   1.203 -25.140  0.00  0.00    -0.605 OA
ATOM      6  C   LIG    1       -3.309   0.113 -23.790  0.00  0.00    -0.025 A 
ATOM      7  C   LIG    1       -3.742  -0.302 -22.546  0.00  0.00    +0.094 A 
ENDROOT
BRANCH   3   8
ATOM      8  N   LIG    1       -0.057   1.810 -22.932  0.00  0.00    +0.069 N 
ATOM      9  O   LIG    1        0.991   1.211 -22.881  0.00  0.00    -0.155 OA
ATOM     10  O   LIG    1       -0.061   3.008 -23.096  0.00  0.00    -0.247 OA
ENDBRANCH   3   8
BRANCH   1  11
ATOM     11  C   LIG    1       -3.429  -0.453 -20.084  0.00  0.00    +0.412 C 
ATOM     12  O   LIG    1       -2.769  -1.245 -19.444  0.00  0.00    -0.472 OA
BRANCH  11  13
ATOM     13  C   LIG    1       -4.718   0.085 -19.519  0.00  0.00    +0.082 C 
BRANCH  13  17
ATOM     14  C   LIG    1       -7.507  -3.115 -19.041  0.00  0.00    -0.008 A 
ATOM     15  C   LIG    1       -6.400  -3.278 -19.853  0.00  0.00    -0.000 A 
ATOM     16  C   LIG    1       -5.498  -2.243 -20.008  0.00  0.00    +0.011 A 
ATOM     17  C   LIG    1       -5.702  -1.044 -19.351  0.00  0.00    -0.064 A 
ATOM     18  C   LIG    1       -6.810  -0.880 -18.539  0.00  0.00    +0.011 A 
ATOM     19  C   LIG    1       -7.711  -1.916 -18.384  0.00  0.00    -0.001 A 
ENDBRANCH  13  17
ENDBRANCH  11  13
ENDBRANCH   1  11
BRANCH   6  20
ATOM     20  O   LIG    1       -4.057  -0.155 -24.894  0.00  0.00    -0.479 OA
ATOM     21  H   LIG    1       -3.548  -0.496 -25.641  0.00  0.00    +0.370 HD
ENDBRANCH   6  20
TORSDOF 5
ENDMDL
MODEL 6
REMARK VINA RESULT:      -6.1      9.690     12.247
REMARK  Name = CHEMBL160038
REMARK                            x       y       z     vdW  Elec       q    Type
REMARK                         _______ _______ _______ _____ _____    ______ ____
ROOT
ATOM      1  C   LIG    1       -3.441 -11.413 -19.209  0.00  0.00    -0.293 A 
ATOM      2  C   LIG    1       -3.065 -12.694 -19.631  0.00  0.00    +0.197 A 
ATOM      3  C   LIG    1       -3.316 -13.785 -18.829  0.00  0.00    -0.203 A 
ATOM      4  C   LIG    1       -3.943 -13.617 -17.600  0.00  0.00    +0.309 A 
ATOM      5  O   LIG    1       -4.188 -14.696 -16.814  0.00  0.00    -0.605 OA
ATOM      6  C   LIG    1       -4.321 -12.345 -17.173  0.00  0.00    -0.025 A 
ATOM      7  C   LIG    1       -4.069 -11.246 -17.969  0.00  0.00    +0.094 A 
ENDROOT
BRANCH   3   8
ATOM      8  N   LIG    1       -2.918 -15.138 -19.276  0.00  0.00    +0.069 N 
ATOM      9  O   LIG    1       -1.985 -15.698 -18.751  0.00  0.00    -0.155 OA
ATOM     10  O   LIG    1       -3.525 -15.683 -20.169  0.00  0.00    -0.247 OA
ENDBRANCH   3   8
BRANCH   1  11
ATOM     11  C   LIG    1       -3.175 -10.248 -20.063  0.00  0.00    +0.412 C 
ATOM     12  O   LIG    1       -3.626 -10.205 -21.188  0.00  0.00    -0.472 OA
BRANCH  11  13
ATOM     13  C   LIG    1       -2.341  -9.106 -19.541  0.00  0.00    +0.082 C 
BRANCH  13  17
ATOM     14  C   LIG    1        1.208  -8.750 -21.893  0.00  0.00    -0.008 A 
ATOM     15  C   LIG    1        0.877  -9.964 -21.320  0.00  0.00    -0.000 A 
ATOM     16  C   LIG    1       -0.271 -10.079 -20.559  0.00  0.00    +0.011 A 
ATOM     17  C   LIG    1       -1.088  -8.981 -20.370  0.00  0.00    -0.064 A 
ATOM     18  C   LIG    1       -0.758  -7.766 -20.943  0.00  0.00    +0.011 A 
ATOM     19  C   LIG    1        0.390  -7.652 -21.705  0.00  0.00    -0.001 A 
ENDBRANCH  13  17
ENDBRANCH  11  13
ENDBRANCH   1  11
BRANCH   6  20
ATOM     20  O   LIG    1       -4.935 -12.187 -15.969  0.00  0.00    -0.479 OA
ATOM     21  H   LIG    1       -4.442 -12.556 -15.225  0.00  0.00    +0.370 HD
ENDBRANCH   6  20
TORSDOF 5
ENDMDL
MODEL 7
REMARK VINA RESULT:      -6.1      9.324     11.518
REMARK  Name = CHEMBL160038
REMARK                            x       y       z     vdW  Elec       q    Type
REMARK                         _______ _______ _______ _____ _____    ______ ____
ROOT
ATOM      1  C   LIG    1       -3.824 -12.356 -20.249  0.00  0.00    -0.293 A 
ATOM      2  C   LIG    1       -4.319 -11.546 -19.219  0.00  0.00    +0.197 A 
ATOM      3  C   LIG    1       -4.335 -12.013 -17.924  0.00  0.00    -0.203 A 
ATOM      4  C   LIG    1       -3.859 -13.287 -17.635  0.00  0.00    +0.309 A 
ATOM      5  O   LIG    1       -3.877 -13.741 -16.356  0.00  0.00    -0.605 OA
ATOM      6  C   LIG    1       -3.364 -14.098 -18.655  0.00  0.00    -0.025 A 
ATOM      7  C   LIG    1       -3.349 -13.640 -19.957  0.00  0.00    +0.094 A 
ENDROOT
BRANCH   3   8
ATOM      8  N   LIG    1       -4.858 -11.157 -16.837  0.00  0.00    +0.069 N 
ATOM      9  O   LIG    1       -5.505 -11.645 -15.940  0.00  0.00    -0.155 OA
ATOM     10  O   LIG    1       -4.640  -9.967 -16.846  0.00  0.00    -0.247 OA
ENDBRANCH   3   8
BRANCH   1  11
ATOM     11  C   LIG    1       -3.806 -11.861 -21.632  0.00  0.00    +0.412 C 
ATOM     12  O   LIG    1       -4.056 -12.614 -22.549  0.00  0.00    -0.472 OA
BRANCH  11  13
ATOM     13  C   LIG    1       -3.476 -10.417 -21.911  0.00  0.00    +0.082 C 
BRANCH  13  17
ATOM     14  C   LIG    1        0.543  -9.617 -20.705  0.00  0.00    -0.008 A 
ATOM     15  C   LIG    1        0.281 -10.636 -21.602  0.00  0.00    -0.000 A 
ATOM     16  C   LIG    1       -1.020 -10.895 -21.992  0.00  0.00    +0.011 A 
ATOM     17  C   LIG    1       -2.058 -10.136 -21.485  0.00  0.00    -0.064 A 
ATOM     18  C   LIG    1       -1.795  -9.117 -20.587  0.00  0.00    +0.011 A 
ATOM     19  C   LIG    1       -0.494  -8.857 -20.199  0.00  0.00    -0.001 A 
ENDBRANCH  13  17
ENDBRANCH  11  13
ENDBRANCH   1  11
BRANCH   6  20
ATOM     20  O   LIG    1       -2.899 -15.344 -18.366  0.00  0.00    -0.479 OA
ATOM     21  H   LIG    1       -2.775 -15.907 -19.142  0.00  0.00    +0.370 HD
ENDBRANCH   6  20
TORSDOF 5
ENDMDL
MODEL 8
REMARK VINA RESULT:      -6.1      8.555     10.128
REMARK  Name = CHEMBL160038
REMARK                            x       y       z     vdW  Elec       q    Type
REMARK                         _______ _______ _______ _____ _____    ______ ____
ROOT
ATOM      1  C   LIG    1       -3.638 -11.842 -19.300  0.00  0.00    -0.293 A 
ATOM      2  C   LIG    1       -4.210 -10.633 -18.884  0.00  0.00    +0.197 A 
ATOM      3  C   LIG    1       -4.774 -10.533 -17.632  0.00  0.00    -0.203 A 
ATOM      4  C   LIG    1       -4.776 -11.630 -16.778  0.00  0.00    +0.309 A 
ATOM      5  O   LIG    1       -5.334 -11.526 -15.545  0.00  0.00    -0.605 OA
ATOM      6  C   LIG    1       -4.208 -12.837 -17.185  0.00  0.00    -0.025 A 
ATOM      7  C   LIG    1       -3.646 -12.947 -18.441  0.00  0.00    +0.094 A 
ENDROOT
BRANCH   3   8
ATOM      8  N   LIG    1       -5.377  -9.255 -17.194  0.00  0.00    +0.069 N 
ATOM      9  O   LIG    1       -6.466  -9.249 -16.669  0.00  0.00    -0.155 OA
ATOM     10  O   LIG    1       -4.782  -8.216 -17.361  0.00  0.00    -0.247 OA
ENDBRANCH   3   8
BRANCH   1  11
ATOM     11  C   LIG    1       -3.036 -11.951 -20.636  0.00  0.00    +0.412 C 
ATOM     12  O   LIG    1       -2.275 -12.862 -20.885  0.00  0.00    -0.472 OA
BRANCH  11  13
ATOM     13  C   LIG    1       -3.363 -10.931 -21.696  0.00  0.00    +0.082 C 
BRANCH  13  17
ATOM     14  C   LIG    1       -7.130 -11.885 -23.471  0.00  0.00    -0.008 A 
ATOM     15  C   LIG    1       -6.554 -10.647 -23.693  0.00  0.00    -0.000 A 
ATOM     16  C   LIG    1       -5.336 -10.339 -23.118  0.00  0.00    +0.011 A 
ATOM     17  C   LIG    1       -4.692 -11.267 -22.321  0.00  0.00    -0.064 A 
ATOM     18  C   LIG    1       -5.268 -12.504 -22.099  0.00  0.00    +0.011 A 
ATOM     19  C   LIG    1       -6.486 -12.813 -22.675  0.00  0.00    -0.001 A 
ENDBRANCH  13  17
ENDBRANCH  11  13
ENDBRANCH   1  11
BRANCH   6  20
ATOM     20  O   LIG    1       -4.214 -13.907 -16.346  0.00  0.00    -0.479 OA
ATOM     21  H   LIG    1       -3.529 -13.876 -15.664  0.00  0.00    +0.370 HD
ENDBRANCH   6  20
TORSDOF 5
ENDMDL
MODEL 9
REMARK VINA RESULT:      -5.9      9.149     11.360
REMARK  Name = CHEMBL160038
REMARK                            x       y       z     vdW  Elec       q    Type
REMARK                         _______ _______ _______ _____ _____    ______ ____
ROOT
ATOM      1  C   LIG    1       -3.395 -10.216 -19.195  0.00  0.00    -0.293 A 
ATOM      2  C   LIG    1       -3.292 -11.575 -18.873  0.00  0.00    +0.197 A 
ATOM      3  C   LIG    1       -3.960 -12.075 -17.778  0.00  0.00    -0.203 A 
ATOM      4  C   LIG    1       -4.739 -11.234 -16.992  0.00  0.00    +0.309 A 
ATOM      5  O   LIG    1       -5.395 -11.733 -15.914  0.00  0.00    -0.605 OA
ATOM      6  C   LIG    1       -4.847  -9.880 -17.307  0.00  0.00    -0.025 A 
ATOM      7  C   LIG    1       -4.176  -9.370 -18.400  0.00  0.00    +0.094 A 
ENDROOT
BRANCH   3   8
ATOM      8  N   LIG    1       -3.850 -13.511 -17.438  0.00  0.00    +0.069 N 
ATOM      9  O   LIG    1       -3.826 -14.340 -18.317  0.00  0.00    -0.155 OA
ATOM     10  O   LIG    1       -3.785 -13.855 -16.280  0.00  0.00    -0.247 OA
ENDBRANCH   3   8
BRANCH   1  11
ATOM     11  C   LIG    1       -2.682  -9.680 -20.363  0.00  0.00    +0.412 C 
ATOM     12  O   LIG    1       -3.129  -9.853 -21.477  0.00  0.00    -0.472 OA
BRANCH  11  13
ATOM     13  C   LIG    1       -1.397  -8.916 -20.176  0.00  0.00    +0.082 C 
BRANCH  13  17
ATOM     14  C   LIG    1        1.829 -11.121 -21.904  0.00  0.00    -0.008 A 
ATOM     15  C   LIG    1        2.080  -9.935 -21.237  0.00  0.00    -0.000 A 
ATOM     16  C   LIG    1        1.036  -9.222 -20.679  0.00  0.00    +0.011 A 
ATOM     17  C   LIG    1       -0.259  -9.693 -20.786  0.00  0.00    -0.064 A 
ATOM     18  C   LIG    1       -0.510 -10.879 -21.453  0.00  0.00    +0.011 A 
ATOM     19  C   LIG    1        0.534 -11.592 -22.010  0.00  0.00    -0.001 A 
ENDBRANCH  13  17
ENDBRANCH  11  13
ENDBRANCH   1  11
BRANCH   6  20
ATOM     20  O   LIG    1       -5.611  -9.062 -16.534  0.00  0.00    -0.479 OA
ATOM     21  H   LIG    1       -6.344  -9.510 -16.091  0.00  0.00    +0.370 HD
ENDBRANCH   6  20
TORSDOF 5
ENDMDL
