MODEL 1
REMARK VINA RESULT:      -6.7      0.000      0.000
REMARK  Name = CHEMBL353012
REMARK                            x       y       z     vdW  Elec       q    Type
REMARK                         _______ _______ _______ _____ _____    ______ ____
ROOT
ATOM      1  C   LIG    1       -4.096  -0.279 -19.755  0.00  0.00    -0.241 A 
ATOM      2  C   LIG    1       -4.817   0.472 -18.816  0.00  0.00    +0.189 A 
ATOM      3  C   LIG    1       -6.010  -0.004 -18.324  0.00  0.00    -0.196 A 
ATOM      4  C   LIG    1       -6.505  -1.230 -18.755  0.00  0.00    +0.309 A 
ATOM      5  O   LIG    1       -7.683  -1.694 -18.266  0.00  0.00    -0.595 OA
ATOM      6  C   LIG    1       -5.794  -1.984 -19.690  0.00  0.00    -0.010 A 
ATOM      7  C   LIG    1       -4.600  -1.513 -20.194  0.00  0.00    +0.084 A 
ENDROOT
BRANCH   3   8
ATOM      8  N   LIG    1       -6.769   0.790 -17.332  0.00  0.00    +0.068 N 
ATOM      9  O   LIG    1       -6.676   0.535 -16.154  0.00  0.00    -0.152 OA
ATOM     10  O   LIG    1       -7.482   1.694 -17.701  0.00  0.00    -0.244 OA
ENDBRANCH   3   8
BRANCH   1  12
ATOM     11  C   LIG    1       -2.579   0.188 -21.637  0.00  0.00    -0.174 C 
ATOM     12  C   LIG    1       -2.826   0.224 -20.281  0.00  0.00    +0.298 C 
BRANCH  11  13
ATOM     13  C   LIG    1       -1.246   0.536 -22.150  0.00  0.00    +0.530 C 
ATOM     14  O   LIG    1       -0.970   1.697 -22.389  0.00  0.00    -0.512 OA
BRANCH  13  15
ATOM     15  O   LIG    1       -0.330  -0.430 -22.357  0.00  0.00    -0.349 OA
BRANCH  15  17
ATOM     16  C   LIG    1        0.246  -2.128 -23.977  0.00  0.00    +0.058 C 
ATOM     17  C   LIG    1        0.112  -0.629 -23.701  0.00  0.00    +0.199 C 
ENDBRANCH  15  17
ENDBRANCH  13  15
ENDBRANCH  11  13
BRANCH  11  18
ATOM     18  C   LIG    1       -3.620  -0.189 -22.545  0.00  0.00    +0.270 C 
ATOM     19  N   LIG    1       -4.446  -0.488 -23.266  0.00  0.00    -0.427 NA
ENDBRANCH  11  18
ENDBRANCH   1  12
BRANCH   6  20
ATOM     20  O   LIG    1       -6.283  -3.182 -20.109  0.00  0.00    -0.479 OA
ATOM     21  H   LIG    1       -6.274  -3.297 -21.068  0.00  0.00    +0.374 HD
ENDBRANCH   6  20
TORSDOF 7
ENDMDL
MODEL 2
REMARK VINA RESULT:      -5.8     12.647     14.534
REMARK  Name = CHEMBL353012
REMARK                            x       y       z     vdW  Elec       q    Type
REMARK                         _______ _______ _______ _____ _____    ______ ____
ROOT
ATOM      1  C   LIG    1       -3.434 -13.915 -18.377  0.00  0.00    -0.241 A 
ATOM      2  C   LIG    1       -3.127 -12.863 -19.253  0.00  0.00    +0.189 A 
ATOM      3  C   LIG    1       -3.492 -11.575 -18.936  0.00  0.00    -0.196 A 
ATOM      4  C   LIG    1       -4.167 -11.312 -17.749  0.00  0.00    +0.309 A 
ATOM      5  O   LIG    1       -4.525 -10.038 -17.442  0.00  0.00    -0.595 OA
ATOM      6  C   LIG    1       -4.477 -12.352 -16.872  0.00  0.00    -0.010 A 
ATOM      7  C   LIG    1       -4.120 -13.648 -17.182  0.00  0.00    +0.084 A 
ENDROOT
BRANCH   3   8
ATOM      8  N   LIG    1       -3.166 -10.467 -19.861  0.00  0.00    +0.068 N 
ATOM      9  O   LIG    1       -3.888 -10.234 -20.803  0.00  0.00    -0.152 OA
ATOM     10  O   LIG    1       -2.180  -9.794 -19.674  0.00  0.00    -0.244 OA
ENDBRANCH   3   8
BRANCH   1  12
ATOM     11  C   LIG    1       -3.351 -15.806 -19.951  0.00  0.00    -0.174 C 
ATOM     12  C   LIG    1       -3.047 -15.287 -18.710  0.00  0.00    +0.298 C 
BRANCH  11  13
ATOM     13  C   LIG    1       -3.114 -17.230 -20.229  0.00  0.00    +0.530 C 
ATOM     14  O   LIG    1       -1.988 -17.683 -20.163  0.00  0.00    -0.512 OA
BRANCH  13  15
ATOM     15  O   LIG    1       -4.146 -18.033 -20.557  0.00  0.00    -0.349 OA
BRANCH  15  17
ATOM     16  C   LIG    1       -5.019 -20.180 -19.873  0.00  0.00    +0.058 C 
ATOM     17  C   LIG    1       -3.889 -19.438 -20.590  0.00  0.00    +0.199 C 
ENDBRANCH  15  17
ENDBRANCH  13  15
ENDBRANCH  11  13
BRANCH  11  18
ATOM     18  C   LIG    1       -3.897 -14.959 -20.968  0.00  0.00    +0.270 C 
ATOM     19  N   LIG    1       -4.329 -14.286 -21.775  0.00  0.00    -0.427 NA
ENDBRANCH  11  18
ENDBRANCH   1  12
BRANCH   6  20
ATOM     20  O   LIG    1       -5.137 -12.088 -15.712  0.00  0.00    -0.479 OA
ATOM     21  H   LIG    1       -6.000 -11.671 -15.837  0.00  0.00    +0.374 HD
ENDBRANCH   6  20
TORSDOF 7
ENDMDL
MODEL 3
REMARK VINA RESULT:      -5.7      9.142      9.966
REMARK  Name = CHEMBL353012
REMARK                            x       y       z     vdW  Elec       q    Type
REMARK                         _______ _______ _______ _____ _____    ______ ____
ROOT
ATOM      1  C   LIG    1       -1.471  -8.852 -20.840  0.00  0.00    -0.241 A 
ATOM      2  C   LIG    1       -2.010  -9.372 -19.654  0.00  0.00    +0.189 A 
ATOM      3  C   LIG    1       -3.051 -10.270 -19.707  0.00  0.00    -0.196 A 
ATOM      4  C   LIG    1       -3.573 -10.663 -20.934  0.00  0.00    +0.309 A 
ATOM      5  O   LIG    1       -4.601 -11.549 -20.980  0.00  0.00    -0.595 OA
ATOM      6  C   LIG    1       -3.044 -10.150 -22.119  0.00  0.00    -0.010 A 
ATOM      7  C   LIG    1       -2.003  -9.246 -22.077  0.00  0.00    +0.084 A 
ENDROOT
BRANCH   3   8
ATOM      8  N   LIG    1       -3.617 -10.818 -18.455  0.00  0.00    +0.068 N 
ATOM      9  O   LIG    1       -3.353 -11.948 -18.115  0.00  0.00    -0.152 OA
ATOM     10  O   LIG    1       -4.343 -10.136 -17.770  0.00  0.00    -0.244 OA
ENDBRANCH   3   8
BRANCH   1  12
ATOM     11  C   LIG    1        0.936  -8.339 -20.923  0.00  0.00    -0.174 C 
ATOM     12  C   LIG    1       -0.363  -7.897 -20.788  0.00  0.00    +0.298 C 
BRANCH  11  13
ATOM     13  C   LIG    1        2.054  -7.410 -20.705  0.00  0.00    +0.530 C 
ATOM     14  O   LIG    1        1.857  -6.210 -20.708  0.00  0.00    -0.512 OA
BRANCH  13  15
ATOM     15  O   LIG    1        3.297  -7.889 -20.501  0.00  0.00    -0.349 OA
BRANCH  15  17
ATOM     16  C   LIG    1        5.175  -7.118 -19.190  0.00  0.00    +0.058 C 
ATOM     17  C   LIG    1        4.363  -6.937 -20.474  0.00  0.00    +0.199 C 
ENDBRANCH  15  17
ENDBRANCH  13  15
ENDBRANCH  11  13
BRANCH  11  18
ATOM     18  C   LIG    1        1.195  -9.702 -21.276  0.00  0.00    +0.270 C 
ATOM     19  N   LIG    1        1.401 -10.784 -21.556  0.00  0.00    -0.427 NA
ENDBRANCH  11  18
ENDBRANCH   1  12
BRANCH   6  20
ATOM     20  O   LIG    1       -3.558 -10.539 -23.317  0.00  0.00    -0.479 OA
ATOM     21  H   LIG    1       -4.421 -10.969 -23.253  0.00  0.00    +0.374 HD
ENDBRANCH   6  20
TORSDOF 7
ENDMDL
MODEL 4
REMARK VINA RESULT:      -5.6      8.810     11.456
REMARK  Name = CHEMBL353012
REMARK                            x       y       z     vdW  Elec       q    Type
REMARK                         _______ _______ _______ _____ _____    ______ ____
ROOT
ATOM      1  C   LIG    1       -0.768  -9.541 -20.421  0.00  0.00    -0.241 A 
ATOM      2  C   LIG    1       -0.306  -8.221 -20.528  0.00  0.00    +0.189 A 
ATOM      3  C   LIG    1        0.600  -7.887 -21.507  0.00  0.00    -0.196 A 
ATOM      4  C   LIG    1        1.062  -8.854 -22.393  0.00  0.00    +0.309 A 
ATOM      5  O   LIG    1        1.957  -8.518 -23.357  0.00  0.00    -0.595 OA
ATOM      6  C   LIG    1        0.608 -10.170 -22.293  0.00  0.00    -0.010 A 
ATOM      7  C   LIG    1       -0.297 -10.517 -21.312  0.00  0.00    +0.084 A 
ENDROOT
BRANCH   3   8
ATOM      8  N   LIG    1        1.086  -6.493 -21.619  0.00  0.00    +0.068 N 
ATOM      9  O   LIG    1        0.673  -5.777 -22.502  0.00  0.00    -0.152 OA
ATOM     10  O   LIG    1        1.895  -6.070 -20.827  0.00  0.00    -0.244 OA
ENDBRANCH   3   8
BRANCH   1  12
ATOM     11  C   LIG    1       -3.051 -10.133 -19.712  0.00  0.00    -0.174 C 
ATOM     12  C   LIG    1       -1.732  -9.901 -19.380  0.00  0.00    +0.298 C 
BRANCH  11  13
ATOM     13  C   LIG    1       -4.051 -10.329 -18.653  0.00  0.00    +0.530 C 
ATOM     14  O   LIG    1       -4.439  -9.380 -17.999  0.00  0.00    -0.512 OA
BRANCH  13  15
ATOM     15  O   LIG    1       -4.538 -11.561 -18.406  0.00  0.00    -0.349 OA
BRANCH  15  17
ATOM     16  C   LIG    1       -3.973 -13.693 -17.417  0.00  0.00    +0.058 C 
ATOM     17  C   LIG    1       -4.131 -12.188 -17.188  0.00  0.00    +0.199 C 
ENDBRANCH  15  17
ENDBRANCH  13  15
ENDBRANCH  11  13
BRANCH  11  18
ATOM     18  C   LIG    1       -3.445 -10.183 -21.087  0.00  0.00    +0.270 C 
ATOM     19  N   LIG    1       -3.758 -10.223 -22.179  0.00  0.00    -0.427 NA
ENDBRANCH  11  18
ENDBRANCH   1  12
BRANCH   6  20
ATOM     20  O   LIG    1        1.062 -11.112 -23.163  0.00  0.00    -0.479 OA
ATOM     21  H   LIG    1        1.307 -10.762 -24.030  0.00  0.00    +0.374 HD
ENDBRANCH   6  20
TORSDOF 7
ENDMDL
MODEL 5
REMARK VINA RESULT:      -5.6      8.816     10.123
REMARK  Name = CHEMBL353012
REMARK                            x       y       z     vdW  Elec       q    Type
REMARK                         _______ _______ _______ _____ _____    ______ ____
ROOT
ATOM      1  C   LIG    1       -2.043  -9.570 -20.253  0.00  0.00    -0.241 A 
ATOM      2  C   LIG    1       -2.453  -9.994 -18.980  0.00  0.00    +0.189 A 
ATOM      3  C   LIG    1       -3.411 -10.973 -18.856  0.00  0.00    -0.196 A 
ATOM      4  C   LIG    1       -3.977 -11.545 -19.990  0.00  0.00    +0.309 A 
ATOM      5  O   LIG    1       -4.922 -12.510 -19.862  0.00  0.00    -0.595 OA
ATOM      6  C   LIG    1       -3.575 -11.129 -21.261  0.00  0.00    -0.010 A 
ATOM      7  C   LIG    1       -2.619 -10.144 -21.396  0.00  0.00    +0.084 A 
ENDROOT
BRANCH   3   8
ATOM      8  N   LIG    1       -3.841 -11.420 -17.513  0.00  0.00    +0.068 N 
ATOM      9  O   LIG    1       -4.571 -10.721 -16.848  0.00  0.00    -0.152 OA
ATOM     10  O   LIG    1       -3.465 -12.484 -17.080  0.00  0.00    -0.244 OA
ENDBRANCH   3   8
BRANCH   1  12
ATOM     11  C   LIG    1        0.246  -8.857 -20.814  0.00  0.00    -0.174 C 
ATOM     12  C   LIG    1       -1.024  -8.528 -20.388  0.00  0.00    +0.298 C 
BRANCH  11  13
ATOM     13  C   LIG    1        1.313  -7.846 -20.791  0.00  0.00    +0.530 C 
ATOM     14  O   LIG    1        2.465  -8.182 -20.591  0.00  0.00    -0.512 OA
BRANCH  13  15
ATOM     15  O   LIG    1        1.015  -6.547 -20.991  0.00  0.00    -0.349 OA
BRANCH  15  17
ATOM     16  C   LIG    1        0.103  -6.078 -23.179  0.00  0.00    +0.058 C 
ATOM     17  C   LIG    1        1.332  -5.998 -22.272  0.00  0.00    +0.199 C 
ENDBRANCH  15  17
ENDBRANCH  13  15
ENDBRANCH  11  13
BRANCH  11  18
ATOM     18  C   LIG    1        0.525 -10.182 -21.278  0.00  0.00    +0.270 C 
ATOM     19  N   LIG    1        0.745 -11.234 -21.648  0.00  0.00    -0.427 NA
ENDBRANCH  11  18
ENDBRANCH   1  12
BRANCH   6  20
ATOM     20  O   LIG    1       -4.132 -11.692 -22.367  0.00  0.00    -0.479 OA
ATOM     21  H   LIG    1       -3.909 -11.241 -23.192  0.00  0.00    +0.374 HD
ENDBRANCH   6  20
TORSDOF 7
ENDMDL
MODEL 6
REMARK VINA RESULT:      -5.6      9.276     10.735
REMARK  Name = CHEMBL353012
REMARK                            x       y       z     vdW  Elec       q    Type
REMARK                         _______ _______ _______ _____ _____    ______ ____
ROOT
ATOM      1  C   LIG    1       -3.167 -10.192 -19.261  0.00  0.00    -0.241 A 
ATOM      2  C   LIG    1       -3.115 -11.547 -18.903  0.00  0.00    +0.189 A 
ATOM      3  C   LIG    1       -3.879 -12.012 -17.857  0.00  0.00    -0.196 A 
ATOM      4  C   LIG    1       -4.702 -11.141 -17.152  0.00  0.00    +0.309 A 
ATOM      5  O   LIG    1       -5.452 -11.606 -16.120  0.00  0.00    -0.595 OA
ATOM      6  C   LIG    1       -4.759  -9.791 -17.500  0.00  0.00    -0.010 A 
ATOM      7  C   LIG    1       -3.993  -9.313 -18.544  0.00  0.00    +0.084 A 
ENDROOT
BRANCH   3   8
ATOM      8  N   LIG    1       -3.824 -13.442 -17.481  0.00  0.00    +0.068 N 
ATOM      9  O   LIG    1       -3.753 -13.759 -16.316  0.00  0.00    -0.152 OA
ATOM     10  O   LIG    1       -3.850 -14.294 -18.339  0.00  0.00    -0.244 OA
ENDBRANCH   3   8
BRANCH   1  12
ATOM     11  C   LIG    1       -2.717  -9.980 -21.672  0.00  0.00    -0.174 C 
ATOM     12  C   LIG    1       -2.355  -9.694 -20.373  0.00  0.00    +0.298 C 
BRANCH  11  13
ATOM     13  C   LIG    1       -1.818  -9.626 -22.780  0.00  0.00    +0.530 C 
ATOM     14  O   LIG    1       -2.267  -9.458 -23.898  0.00  0.00    -0.512 OA
BRANCH  13  15
ATOM     15  O   LIG    1       -0.496  -9.487 -22.557  0.00  0.00    -0.349 OA
BRANCH  15  17
ATOM     16  C   LIG    1       -0.203  -7.126 -22.131  0.00  0.00    +0.058 C 
ATOM     17  C   LIG    1        0.126  -8.301 -23.055  0.00  0.00    +0.199 C 
ENDBRANCH  15  17
ENDBRANCH  13  15
ENDBRANCH  11  13
BRANCH  11  18
ATOM     18  C   LIG    1       -3.967 -10.623 -21.943  0.00  0.00    +0.270 C 
ATOM     19  N   LIG    1       -4.960 -11.133 -22.157  0.00  0.00    -0.427 NA
ENDBRANCH  11  18
ENDBRANCH   1  12
BRANCH   6  20
ATOM     20  O   LIG    1       -5.566  -8.944 -16.807  0.00  0.00    -0.479 OA
ATOM     21  H   LIG    1       -6.109  -8.372 -17.366  0.00  0.00    +0.374 HD
ENDBRANCH   6  20
TORSDOF 7
ENDMDL
MODEL 7
REMARK VINA RESULT:      -5.5      9.486     11.912
REMARK  Name = CHEMBL353012
REMARK                            x       y       z     vdW  Elec       q    Type
REMARK                         _______ _______ _______ _____ _____    ______ ____
ROOT
ATOM      1  C   LIG    1       -2.489 -10.613 -20.986  0.00  0.00    -0.241 A 
ATOM      2  C   LIG    1       -1.265  -9.986 -20.710  0.00  0.00    +0.189 A 
ATOM      3  C   LIG    1       -0.840  -8.934 -21.489  0.00  0.00    -0.196 A 
ATOM      4  C   LIG    1       -1.620  -8.491 -22.551  0.00  0.00    +0.309 A 
ATOM      5  O   LIG    1       -1.196  -7.454 -23.317  0.00  0.00    -0.595 OA
ATOM      6  C   LIG    1       -2.839  -9.110 -22.833  0.00  0.00    -0.010 A 
ATOM      7  C   LIG    1       -3.272 -10.168 -22.062  0.00  0.00    +0.084 A 
ENDROOT
BRANCH   3   8
ATOM      8  N   LIG    1        0.451  -8.273 -21.197  0.00  0.00    +0.068 N 
ATOM      9  O   LIG    1        0.487  -7.319 -20.455  0.00  0.00    -0.152 OA
ATOM     10  O   LIG    1        1.469  -8.688 -21.698  0.00  0.00    -0.244 OA
ENDBRANCH   3   8
BRANCH   1  12
ATOM     11  C   LIG    1       -3.562 -11.490 -18.951  0.00  0.00    -0.174 C 
ATOM     12  C   LIG    1       -2.944 -11.732 -20.160  0.00  0.00    +0.298 C 
BRANCH  11  13
ATOM     13  C   LIG    1       -3.868 -12.607 -18.046  0.00  0.00    +0.530 C 
ATOM     14  O   LIG    1       -3.938 -12.417 -16.847  0.00  0.00    -0.512 OA
BRANCH  13  15
ATOM     15  O   LIG    1       -4.072 -13.843 -18.545  0.00  0.00    -0.349 OA
BRANCH  15  17
ATOM     16  C   LIG    1       -2.566 -15.647 -19.110  0.00  0.00    +0.058 C 
ATOM     17  C   LIG    1       -3.294 -14.904 -17.988  0.00  0.00    +0.199 C 
ENDBRANCH  15  17
ENDBRANCH  13  15
ENDBRANCH  11  13
BRANCH  11  18
ATOM     18  C   LIG    1       -3.905 -10.151 -18.578  0.00  0.00    +0.270 C 
ATOM     19  N   LIG    1       -4.177  -9.089 -18.282  0.00  0.00    -0.427 NA
ENDBRANCH  11  18
ENDBRANCH   1  12
BRANCH   6  20
ATOM     20  O   LIG    1       -3.598  -8.672 -23.873  0.00  0.00    -0.479 OA
ATOM     21  H   LIG    1       -3.218  -8.855 -24.743  0.00  0.00    +0.374 HD
ENDBRANCH   6  20
TORSDOF 7
ENDMDL
MODEL 8
REMARK VINA RESULT:      -5.5      9.163     11.363
REMARK  Name = CHEMBL353012
REMARK                            x       y       z     vdW  Elec       q    Type
REMARK                         _______ _______ _______ _____ _____    ______ ____
ROOT
ATOM      1  C   LIG    1       -1.486  -8.913 -20.726  0.00  0.00    -0.241 A 
ATOM      2  C   LIG    1       -0.190  -8.496 -20.387  0.00  0.00    +0.189 A 
ATOM      3  C   LIG    1        0.580  -7.825 -21.310  0.00  0.00    -0.196 A 
ATOM      4  C   LIG    1        0.078  -7.560 -22.579  0.00  0.00    +0.309 A 
ATOM      5  O   LIG    1        0.843  -6.899 -23.485  0.00  0.00    -0.595 OA
ATOM      6  C   LIG    1       -1.210  -7.973 -22.925  0.00  0.00    -0.010 A 
ATOM      7  C   LIG    1       -1.989  -8.650 -22.009  0.00  0.00    +0.084 A 
ENDROOT
BRANCH   3   8
ATOM      8  N   LIG    1        1.946  -7.386 -20.951  0.00  0.00    +0.068 N 
ATOM      9  O   LIG    1        2.876  -8.152 -21.058  0.00  0.00    -0.152 OA
ATOM     10  O   LIG    1        2.134  -6.260 -20.552  0.00  0.00    -0.244 OA
ENDBRANCH   3   8
BRANCH   1  12
ATOM     11  C   LIG    1       -2.639 -10.948 -19.958  0.00  0.00    -0.174 C 
ATOM     12  C   LIG    1       -2.308  -9.627 -19.748  0.00  0.00    +0.298 C 
BRANCH  11  13
ATOM     13  C   LIG    1       -3.597 -11.617 -19.067  0.00  0.00    +0.530 C 
ATOM     14  O   LIG    1       -4.453 -12.346 -19.530  0.00  0.00    -0.512 OA
BRANCH  13  15
ATOM     15  O   LIG    1       -3.529 -11.421 -17.735  0.00  0.00    -0.349 OA
BRANCH  15  17
ATOM     16  C   LIG    1       -5.230  -9.831 -17.090  0.00  0.00    +0.058 C 
ATOM     17  C   LIG    1       -4.766 -11.288 -17.033  0.00  0.00    +0.199 C 
ENDBRANCH  15  17
ENDBRANCH  13  15
ENDBRANCH  11  13
BRANCH  11  18
ATOM     18  C   LIG    1       -2.049 -11.670 -21.045  0.00  0.00    +0.270 C 
ATOM     19  N   LIG    1       -1.581 -12.242 -21.908  0.00  0.00    -0.427 NA
ENDBRANCH  11  18
ENDBRANCH   1  12
BRANCH   6  20
ATOM     20  O   LIG    1       -1.696  -7.710 -24.168  0.00  0.00    -0.479 OA
ATOM     21  H   LIG    1       -2.612  -7.402 -24.175  0.00  0.00    +0.374 HD
ENDBRANCH   6  20
TORSDOF 7
ENDMDL
MODEL 9
REMARK VINA RESULT:      -5.4      8.507     10.250
REMARK  Name = CHEMBL353012
REMARK                            x       y       z     vdW  Elec       q    Type
REMARK                         _______ _______ _______ _____ _____    ______ ____
ROOT
ATOM      1  C   LIG    1       -1.192  -9.315 -20.387  0.00  0.00    -0.241 A 
ATOM      2  C   LIG    1       -1.076 -10.452 -21.200  0.00  0.00    +0.189 A 
ATOM      3  C   LIG    1       -2.036 -11.436 -21.146  0.00  0.00    -0.196 A 
ATOM      4  C   LIG    1       -3.122 -11.308 -20.287  0.00  0.00    +0.309 A 
ATOM      5  O   LIG    1       -4.065 -12.283 -20.238  0.00  0.00    -0.595 OA
ATOM      6  C   LIG    1       -3.245 -10.180 -19.475  0.00  0.00    -0.010 A 
ATOM      7  C   LIG    1       -2.285  -9.189 -19.517  0.00  0.00    +0.084 A 
ENDROOT
BRANCH   3   8
ATOM      8  N   LIG    1       -1.912 -12.635 -22.004  0.00  0.00    +0.068 N 
ATOM      9  O   LIG    1       -1.353 -13.623 -21.587  0.00  0.00    -0.152 OA
ATOM     10  O   LIG    1       -2.371 -12.628 -23.122  0.00  0.00    -0.244 OA
ENDBRANCH   3   8
BRANCH   1  12
ATOM     11  C   LIG    1       -0.076  -7.454 -21.553  0.00  0.00    -0.174 C 
ATOM     12  C   LIG    1       -0.173  -8.265 -20.441  0.00  0.00    +0.298 C 
BRANCH  11  13
ATOM     13  C   LIG    1        1.047  -6.515 -21.681  0.00  0.00    +0.530 C 
ATOM     14  O   LIG    1        1.172  -5.851 -22.692  0.00  0.00    -0.512 OA
BRANCH  13  15
ATOM     15  O   LIG    1        1.938  -6.389 -20.678  0.00  0.00    -0.349 OA
BRANCH  15  17
ATOM     16  C   LIG    1        3.527  -8.201 -20.496  0.00  0.00    +0.058 C 
ATOM     17  C   LIG    1        3.289  -6.763 -20.959  0.00  0.00    +0.199 C 
ENDBRANCH  15  17
ENDBRANCH  13  15
ENDBRANCH  11  13
BRANCH  11  18
ATOM     18  C   LIG    1       -1.070  -7.527 -22.581  0.00  0.00    +0.270 C 
ATOM     19  N   LIG    1       -1.859  -7.585 -23.396  0.00  0.00    -0.427 NA
ENDBRANCH  11  18
ENDBRANCH   1  12
BRANCH   6  20
ATOM     20  O   LIG    1       -4.309 -10.059 -18.637  0.00  0.00    -0.479 OA
ATOM     21  H   LIG    1       -4.462 -10.835 -18.081  0.00  0.00    +0.374 HD
ENDBRANCH   6  20
TORSDOF 7
ENDMDL
