MODEL 1
REMARK VINA RESULT:      -9.1      0.000      0.000
REMARK  Name = CHEMBL169926
REMARK                            x       y       z     vdW  Elec       q    Type
REMARK                         _______ _______ _______ _____ _____    ______ ____
ROOT
ATOM      1  C   LIG    1       -6.294  -2.243 -19.382  0.00  0.00    -0.068 A 
ATOM      2  C   LIG    1       -6.730  -1.401 -18.350  0.00  0.00    +0.142 A 
ATOM      3  C   LIG    1       -6.138  -0.173 -18.169  0.00  0.00    -0.067 A 
ATOM      4  C   LIG    1       -5.107   0.237 -19.006  0.00  0.00    +0.164 A 
ATOM      5  C   LIG    1       -4.668  -0.594 -20.036  0.00  0.00    +0.086 A 
ATOM      6  C   LIG    1       -5.252  -1.831 -20.222  0.00  0.00    +0.094 A 
ENDROOT
BRANCH   3   7
ATOM      7  N   LIG    1       -6.599   0.716 -17.078  0.00  0.00    +0.034 N 
ATOM      8  O   LIG    1       -6.415   0.405 -15.926  0.00  0.00    -0.130 OA
ATOM      9  O   LIG    1       -7.161   1.754 -17.342  0.00  0.00    -0.158 OA
ENDBRANCH   3   7
BRANCH   1  11
ATOM     10  C   LIG    1       -7.646  -4.115 -18.582  0.00  0.00    -0.085 C 
ATOM     11  C   LIG    1       -6.924  -3.555 -19.579  0.00  0.00    +0.140 C 
BRANCH  10  12
ATOM     12  C   LIG    1       -8.254  -5.382 -18.771  0.00  0.00    +0.424 C 
ATOM     13  O   LIG    1       -9.182  -5.501 -19.551  0.00  0.00    -0.453 OA
BRANCH  12  17
ATOM     14  C   LIG    1       -6.838  -8.764 -16.625  0.00  0.00    +0.041 A 
ATOM     15  C   LIG    1       -5.980  -8.069 -17.459  0.00  0.00    +0.000 A 
ATOM     16  C   LIG    1       -6.433  -6.970 -18.159  0.00  0.00    +0.073 A 
ATOM     17  C   LIG    1       -7.760  -6.558 -18.024  0.00  0.00    -0.165 A 
ATOM     18  C   LIG    1       -8.621  -7.264 -17.181  0.00  0.00    +0.053 A 
ATOM     19  C   LIG    1       -8.155  -8.361 -16.486  0.00  0.00    -0.002 A 
ENDBRANCH  12  17
ENDBRANCH  10  12
ENDBRANCH   1  11
BRANCH   4  20
ATOM     20  O   LIG    1       -4.527   1.451 -18.822  0.00  0.00    -0.459 OA
ATOM     21  H   LIG    1       -4.075   1.794 -19.605  0.00  0.00    +0.406 HD
ENDBRANCH   4  20
BRANCH   5  22
ATOM     22  O   LIG    1       -3.660  -0.189 -20.854  0.00  0.00    -0.471 OA
ATOM     23  H   LIG    1       -2.817  -0.049 -20.400  0.00  0.00    +0.398 HD
ENDBRANCH   5  22
TORSDOF 6
ENDMDL
MODEL 2
REMARK VINA RESULT:      -9.0      2.490      3.790
REMARK  Name = CHEMBL169926
REMARK                            x       y       z     vdW  Elec       q    Type
REMARK                         _______ _______ _______ _____ _____    ______ ____
ROOT
ATOM      1  C   LIG    1       -5.945  -1.936 -19.713  0.00  0.00    -0.068 A 
ATOM      2  C   LIG    1       -6.458  -1.199 -18.638  0.00  0.00    +0.142 A 
ATOM      3  C   LIG    1       -5.909   0.020 -18.316  0.00  0.00    -0.067 A 
ATOM      4  C   LIG    1       -4.845   0.524 -19.054  0.00  0.00    +0.164 A 
ATOM      5  C   LIG    1       -4.329  -0.202 -20.127  0.00  0.00    +0.086 A 
ATOM      6  C   LIG    1       -4.870  -1.429 -20.454  0.00  0.00    +0.094 A 
ENDROOT
BRANCH   3   7
ATOM      7  N   LIG    1       -6.452   0.799 -17.180  0.00  0.00    +0.034 N 
ATOM      8  O   LIG    1       -6.996   1.859 -17.378  0.00  0.00    -0.130 OA
ATOM      9  O   LIG    1       -6.352   0.372 -16.052  0.00  0.00    -0.158 OA
ENDBRANCH   3   7
BRANCH   1  11
ATOM     10  C   LIG    1       -7.855  -3.450 -19.898  0.00  0.00    -0.085 C 
ATOM     11  C   LIG    1       -6.529  -3.239 -20.060  0.00  0.00    +0.140 C 
BRANCH  10  12
ATOM     12  C   LIG    1       -8.418  -4.707 -20.232  0.00  0.00    +0.424 C 
ATOM     13  O   LIG    1       -8.471  -5.592 -19.397  0.00  0.00    -0.453 OA
BRANCH  12  17
ATOM     14  C   LIG    1       -9.922  -5.387 -24.148  0.00  0.00    +0.041 A 
ATOM     15  C   LIG    1      -10.159  -6.314 -23.147  0.00  0.00    +0.000 A 
ATOM     16  C   LIG    1       -9.674  -6.100 -21.875  0.00  0.00    +0.073 A 
ATOM     17  C   LIG    1       -8.942  -4.944 -21.595  0.00  0.00    -0.165 A 
ATOM     18  C   LIG    1       -8.707  -4.013 -22.608  0.00  0.00    +0.053 A 
ATOM     19  C   LIG    1       -9.198  -4.239 -23.877  0.00  0.00    -0.002 A 
ENDBRANCH  12  17
ENDBRANCH  10  12
ENDBRANCH   1  11
BRANCH   4  20
ATOM     20  O   LIG    1       -4.307   1.729 -18.731  0.00  0.00    -0.459 OA
ATOM     21  H   LIG    1       -4.926   2.468 -18.800  0.00  0.00    +0.406 HD
ENDBRANCH   4  20
BRANCH   5  22
ATOM     22  O   LIG    1       -3.288   0.295 -20.846  0.00  0.00    -0.471 OA
ATOM     23  H   LIG    1       -3.452   0.336 -21.799  0.00  0.00    +0.398 HD
ENDBRANCH   5  22
TORSDOF 6
ENDMDL
MODEL 3
REMARK VINA RESULT:      -8.9      2.866      4.525
REMARK  Name = CHEMBL169926
REMARK                            x       y       z     vdW  Elec       q    Type
REMARK                         _______ _______ _______ _____ _____    ______ ____
ROOT
ATOM      1  C   LIG    1       -5.630  -1.565 -19.685  0.00  0.00    -0.068 A 
ATOM      2  C   LIG    1       -4.574  -1.099 -20.479  0.00  0.00    +0.142 A 
ATOM      3  C   LIG    1       -4.039   0.148 -20.248  0.00  0.00    -0.067 A 
ATOM      4  C   LIG    1       -4.543   0.947 -19.230  0.00  0.00    +0.164 A 
ATOM      5  C   LIG    1       -5.593   0.490 -18.434  0.00  0.00    +0.086 A 
ATOM      6  C   LIG    1       -6.140  -0.756 -18.662  0.00  0.00    +0.094 A 
ENDROOT
BRANCH   3   7
ATOM      7  N   LIG    1       -2.922   0.640 -21.087  0.00  0.00    +0.034 N 
ATOM      8  O   LIG    1       -2.890   1.797 -21.433  0.00  0.00    -0.130 OA
ATOM      9  O   LIG    1       -2.042  -0.118 -21.426  0.00  0.00    -0.158 OA
ENDBRANCH   3   7
BRANCH   1  11
ATOM     10  C   LIG    1       -7.534  -3.094 -19.784  0.00  0.00    -0.085 C 
ATOM     11  C   LIG    1       -6.204  -2.895 -19.929  0.00  0.00    +0.140 C 
BRANCH  10  12
ATOM     12  C   LIG    1       -8.088  -4.377 -20.020  0.00  0.00    +0.424 C 
ATOM     13  O   LIG    1       -8.042  -5.230 -19.151  0.00  0.00    -0.453 OA
BRANCH  12  17
ATOM     14  C   LIG    1       -9.912  -5.253 -23.756  0.00  0.00    +0.041 A 
ATOM     15  C   LIG    1       -9.117  -4.128 -23.624  0.00  0.00    +0.000 A 
ATOM     16  C   LIG    1       -8.522  -3.838 -22.415  0.00  0.00    +0.073 A 
ATOM     17  C   LIG    1       -8.722  -4.682 -21.320  0.00  0.00    -0.165 A 
ATOM     18  C   LIG    1       -9.526  -5.815 -21.460  0.00  0.00    +0.053 A 
ATOM     19  C   LIG    1      -10.115  -6.094 -22.676  0.00  0.00    -0.002 A 
ENDBRANCH  12  17
ENDBRANCH  10  12
ENDBRANCH   1  11
BRANCH   4  20
ATOM     20  O   LIG    1       -4.010   2.176 -19.006  0.00  0.00    -0.459 OA
ATOM     21  H   LIG    1       -3.718   2.630 -19.808  0.00  0.00    +0.406 HD
ENDBRANCH   4  20
BRANCH   5  22
ATOM     22  O   LIG    1       -6.082   1.275 -17.438  0.00  0.00    -0.471 OA
ATOM     23  H   LIG    1       -6.514   2.083 -17.748  0.00  0.00    +0.398 HD
ENDBRANCH   5  22
TORSDOF 6
ENDMDL
MODEL 4
REMARK VINA RESULT:      -8.8      3.631      7.925
REMARK  Name = CHEMBL169926
REMARK                            x       y       z     vdW  Elec       q    Type
REMARK                         _______ _______ _______ _____ _____    ______ ____
ROOT
ATOM      1  C   LIG    1       -7.586  -6.714 -17.784  0.00  0.00    -0.068 A 
ATOM      2  C   LIG    1       -6.391  -7.411 -18.005  0.00  0.00    +0.142 A 
ATOM      3  C   LIG    1       -6.105  -8.537 -17.267  0.00  0.00    -0.067 A 
ATOM      4  C   LIG    1       -6.998  -8.985 -16.302  0.00  0.00    +0.164 A 
ATOM      5  C   LIG    1       -8.190  -8.297 -16.075  0.00  0.00    +0.086 A 
ATOM      6  C   LIG    1       -8.483  -7.164 -16.807  0.00  0.00    +0.094 A 
ENDROOT
BRANCH   3   7
ATOM      7  N   LIG    1       -4.842  -9.273 -17.502  0.00  0.00    +0.034 N 
ATOM      8  O   LIG    1       -4.655 -10.339 -16.966  0.00  0.00    -0.130 OA
ATOM      9  O   LIG    1       -3.997  -8.806 -18.231  0.00  0.00    -0.158 OA
ENDBRANCH   3   7
BRANCH   1  11
ATOM     10  C   LIG    1       -6.892  -4.761 -19.079  0.00  0.00    -0.085 C 
ATOM     11  C   LIG    1       -7.895  -5.512 -18.570  0.00  0.00    +0.140 C 
BRANCH  10  12
ATOM     12  C   LIG    1       -7.190  -3.601 -19.837  0.00  0.00    +0.424 C 
ATOM     13  O   LIG    1       -7.924  -3.680 -20.806  0.00  0.00    -0.453 OA
BRANCH  12  17
ATOM     14  C   LIG    1       -5.527   0.148 -18.729  0.00  0.00    +0.041 A 
ATOM     15  C   LIG    1       -4.836  -0.684 -19.594  0.00  0.00    +0.000 A 
ATOM     16  C   LIG    1       -5.370  -1.902 -19.957  0.00  0.00    +0.073 A 
ATOM     17  C   LIG    1       -6.611  -2.297 -19.452  0.00  0.00    -0.165 A 
ATOM     18  C   LIG    1       -7.302  -1.452 -18.581  0.00  0.00    +0.053 A 
ATOM     19  C   LIG    1       -6.757  -0.236 -18.225  0.00  0.00    -0.002 A 
ENDBRANCH  12  17
ENDBRANCH  10  12
ENDBRANCH   1  11
BRANCH   4  20
ATOM     20  O   LIG    1       -6.710 -10.096 -15.576  0.00  0.00    -0.459 OA
ATOM     21  H   LIG    1       -7.321 -10.831 -15.723  0.00  0.00    +0.406 HD
ENDBRANCH   4  20
BRANCH   5  22
ATOM     22  O   LIG    1       -9.061  -8.740 -15.130  0.00  0.00    -0.471 OA
ATOM     23  H   LIG    1       -9.516  -9.561 -15.366  0.00  0.00    +0.398 HD
ENDBRANCH   5  22
TORSDOF 6
ENDMDL
MODEL 5
REMARK VINA RESULT:      -8.6      1.179      2.504
REMARK  Name = CHEMBL169926
REMARK                            x       y       z     vdW  Elec       q    Type
REMARK                         _______ _______ _______ _____ _____    ______ ____
ROOT
ATOM      1  C   LIG    1       -6.819  -2.309 -19.059  0.00  0.00    -0.068 A 
ATOM      2  C   LIG    1       -5.565  -2.024 -19.615  0.00  0.00    +0.142 A 
ATOM      3  C   LIG    1       -4.998  -0.783 -19.432  0.00  0.00    -0.067 A 
ATOM      4  C   LIG    1       -5.666   0.189 -18.698  0.00  0.00    +0.164 A 
ATOM      5  C   LIG    1       -6.914  -0.087 -18.140  0.00  0.00    +0.086 A 
ATOM      6  C   LIG    1       -7.493  -1.326 -18.323  0.00  0.00    +0.094 A 
ENDROOT
BRANCH   3   7
ATOM      7  N   LIG    1       -3.673  -0.483 -20.020  0.00  0.00    +0.034 N 
ATOM      8  O   LIG    1       -2.696  -1.090 -19.650  0.00  0.00    -0.130 OA
ATOM      9  O   LIG    1       -3.568   0.371 -20.870  0.00  0.00    -0.158 OA
ENDBRANCH   3   7
BRANCH   1  11
ATOM     10  C   LIG    1       -7.873  -4.333 -18.185  0.00  0.00    -0.085 C 
ATOM     11  C   LIG    1       -7.428  -3.632 -19.252  0.00  0.00    +0.140 C 
BRANCH  10  12
ATOM     12  C   LIG    1       -8.461  -5.610 -18.371  0.00  0.00    +0.424 C 
ATOM     13  O   LIG    1       -9.439  -5.731 -19.087  0.00  0.00    -0.453 OA
BRANCH  12  17
ATOM     14  C   LIG    1       -6.809  -9.014 -16.439  0.00  0.00    +0.041 A 
ATOM     15  C   LIG    1       -6.030  -8.268 -17.306  0.00  0.00    +0.000 A 
ATOM     16  C   LIG    1       -6.560  -7.163 -17.937  0.00  0.00    +0.073 A 
ATOM     17  C   LIG    1       -7.885  -6.794 -17.699  0.00  0.00    -0.165 A 
ATOM     18  C   LIG    1       -8.666  -7.551 -16.822  0.00  0.00    +0.053 A 
ATOM     19  C   LIG    1       -8.124  -8.655 -16.198  0.00  0.00    -0.002 A 
ENDBRANCH  12  17
ENDBRANCH  10  12
ENDBRANCH   1  11
BRANCH   4  20
ATOM     20  O   LIG    1       -5.101   1.412 -18.521  0.00  0.00    -0.459 OA
ATOM     21  H   LIG    1       -4.602   1.499 -17.698  0.00  0.00    +0.406 HD
ENDBRANCH   4  20
BRANCH   5  22
ATOM     22  O   LIG    1       -7.563   0.868 -17.422  0.00  0.00    -0.471 OA
ATOM     23  H   LIG    1       -7.161   1.056 -16.562  0.00  0.00    +0.398 HD
ENDBRANCH   5  22
TORSDOF 6
ENDMDL
MODEL 6
REMARK VINA RESULT:      -7.7      9.200     12.414
REMARK  Name = CHEMBL169926
REMARK                            x       y       z     vdW  Elec       q    Type
REMARK                         _______ _______ _______ _____ _____    ______ ____
ROOT
ATOM      1  C   LIG    1       -3.517 -14.029 -18.448  0.00  0.00    -0.068 A 
ATOM      2  C   LIG    1       -3.288 -12.985 -19.354  0.00  0.00    +0.142 A 
ATOM      3  C   LIG    1       -3.625 -11.695 -19.017  0.00  0.00    -0.067 A 
ATOM      4  C   LIG    1       -4.193 -11.422 -17.778  0.00  0.00    +0.164 A 
ATOM      5  C   LIG    1       -4.424 -12.455 -16.870  0.00  0.00    +0.086 A 
ATOM      6  C   LIG    1       -4.094 -13.754 -17.202  0.00  0.00    +0.094 A 
ENDROOT
BRANCH   3   7
ATOM      7  N   LIG    1       -3.381 -10.593 -19.975  0.00  0.00    +0.034 N 
ATOM      8  O   LIG    1       -2.642  -9.685 -19.677  0.00  0.00    -0.130 OA
ATOM      9  O   LIG    1       -3.923 -10.602 -21.056  0.00  0.00    -0.158 OA
ENDBRANCH   3   7
BRANCH   1  11
ATOM     10  C   LIG    1       -3.527 -15.913 -20.005  0.00  0.00    -0.085 C 
ATOM     11  C   LIG    1       -3.159 -15.408 -18.806  0.00  0.00    +0.140 C 
BRANCH  10  12
ATOM     12  C   LIG    1       -3.182 -17.244 -20.350  0.00  0.00    +0.424 C 
ATOM     13  O   LIG    1       -2.019 -17.604 -20.295  0.00  0.00    -0.453 OA
BRANCH  12  17
ATOM     14  C   LIG    1       -6.197 -19.975 -21.572  0.00  0.00    +0.041 A 
ATOM     15  C   LIG    1       -5.948 -18.841 -22.326  0.00  0.00    +0.000 A 
ATOM     16  C   LIG    1       -4.971 -17.951 -21.935  0.00  0.00    +0.073 A 
ATOM     17  C   LIG    1       -4.231 -18.194 -20.776  0.00  0.00    -0.165 A 
ATOM     18  C   LIG    1       -4.488 -19.340 -20.020  0.00  0.00    +0.053 A 
ATOM     19  C   LIG    1       -5.468 -20.223 -20.422  0.00  0.00    -0.002 A 
ENDBRANCH  12  17
ENDBRANCH  10  12
ENDBRANCH   1  11
BRANCH   4  20
ATOM     20  O   LIG    1       -4.523 -10.147 -17.451  0.00  0.00    -0.459 OA
ATOM     21  H   LIG    1       -4.744 -10.025 -16.517  0.00  0.00    +0.406 HD
ENDBRANCH   4  20
BRANCH   5  22
ATOM     22  O   LIG    1       -4.979 -12.184 -15.659  0.00  0.00    -0.471 OA
ATOM     23  H   LIG    1       -5.500 -11.368 -15.638  0.00  0.00    +0.398 HD
ENDBRANCH   5  22
TORSDOF 6
ENDMDL
MODEL 7
REMARK VINA RESULT:      -7.6      7.823     10.870
REMARK  Name = CHEMBL169926
REMARK                            x       y       z     vdW  Elec       q    Type
REMARK                         _______ _______ _______ _____ _____    ______ ____
ROOT
ATOM      1  C   LIG    1       -3.481 -10.287 -19.036  0.00  0.00    -0.068 A 
ATOM      2  C   LIG    1       -3.377 -11.649 -18.725  0.00  0.00    +0.142 A 
ATOM      3  C   LIG    1       -4.048 -12.159 -17.637  0.00  0.00    -0.067 A 
ATOM      4  C   LIG    1       -4.829 -11.326 -16.845  0.00  0.00    +0.164 A 
ATOM      5  C   LIG    1       -4.938  -9.969 -17.148  0.00  0.00    +0.086 A 
ATOM      6  C   LIG    1       -4.264  -9.448 -18.234  0.00  0.00    +0.094 A 
ENDROOT
BRANCH   3   7
ATOM      7  N   LIG    1       -3.938 -13.598 -17.309  0.00  0.00    +0.034 N 
ATOM      8  O   LIG    1       -3.892 -13.954 -16.155  0.00  0.00    -0.130 OA
ATOM      9  O   LIG    1       -3.893 -14.418 -18.196  0.00  0.00    -0.158 OA
ENDBRANCH   3   7
BRANCH   1  11
ATOM     10  C   LIG    1       -1.646  -9.002 -20.015  0.00  0.00    -0.085 C 
ATOM     11  C   LIG    1       -2.765  -9.740 -20.197  0.00  0.00    +0.140 C 
BRANCH  10  12
ATOM     12  C   LIG    1       -0.956  -8.475 -21.135  0.00  0.00    +0.424 C 
ATOM     13  O   LIG    1       -1.541  -8.316 -22.192  0.00  0.00    -0.453 OA
BRANCH  12  17
ATOM     14  C   LIG    1        3.152  -7.441 -20.807  0.00  0.00    +0.041 A 
ATOM     15  C   LIG    1        2.737  -8.725 -20.496  0.00  0.00    +0.000 A 
ATOM     16  C   LIG    1        1.406  -9.066 -20.600  0.00  0.00    +0.073 A 
ATOM     17  C   LIG    1        0.474  -8.115 -21.021  0.00  0.00    -0.165 A 
ATOM     18  C   LIG    1        0.899  -6.822 -21.333  0.00  0.00    +0.053 A 
ATOM     19  C   LIG    1        2.234  -6.493 -21.225  0.00  0.00    -0.002 A 
ENDBRANCH  12  17
ENDBRANCH  10  12
ENDBRANCH   1  11
BRANCH   4  20
ATOM     20  O   LIG    1       -5.489 -11.835 -15.772  0.00  0.00    -0.459 OA
ATOM     21  H   LIG    1       -5.393 -12.791 -15.668  0.00  0.00    +0.406 HD
ENDBRANCH   4  20
BRANCH   5  22
ATOM     22  O   LIG    1       -5.704  -9.158 -16.371  0.00  0.00    -0.471 OA
ATOM     23  H   LIG    1       -5.993  -8.347 -16.812  0.00  0.00    +0.398 HD
ENDBRANCH   5  22
TORSDOF 6
ENDMDL
MODEL 8
REMARK VINA RESULT:      -7.4      7.394     10.133
REMARK  Name = CHEMBL169926
REMARK                            x       y       z     vdW  Elec       q    Type
REMARK                         _______ _______ _______ _____ _____    ______ ____
ROOT
ATOM      1  C   LIG    1       -3.471 -11.253 -19.016  0.00  0.00    -0.068 A 
ATOM      2  C   LIG    1       -4.204 -10.169 -18.516  0.00  0.00    +0.142 A 
ATOM      3  C   LIG    1       -4.928 -10.307 -17.353  0.00  0.00    -0.067 A 
ATOM      4  C   LIG    1       -4.934 -11.518 -16.673  0.00  0.00    +0.164 A 
ATOM      5  C   LIG    1       -4.206 -12.602 -17.164  0.00  0.00    +0.086 A 
ATOM      6  C   LIG    1       -3.481 -12.475 -18.332  0.00  0.00    +0.094 A 
ENDROOT
BRANCH   3   7
ATOM      7  N   LIG    1       -5.703  -9.161 -16.825  0.00  0.00    +0.034 N 
ATOM      8  O   LIG    1       -5.267  -8.039 -16.925  0.00  0.00    -0.130 OA
ATOM      9  O   LIG    1       -6.773  -9.349 -16.293  0.00  0.00    -0.158 OA
ENDBRANCH   3   7
BRANCH   1  11
ATOM     10  C   LIG    1       -2.056  -9.949 -20.524  0.00  0.00    -0.085 C 
ATOM     11  C   LIG    1       -2.697 -11.109 -20.257  0.00  0.00    +0.140 C 
BRANCH  10  12
ATOM     12  C   LIG    1       -1.310  -9.811 -21.720  0.00  0.00    +0.424 C 
ATOM     13  O   LIG    1       -0.342 -10.523 -21.920  0.00  0.00    -0.453 OA
BRANCH  12  17
ATOM     14  C   LIG    1       -2.447  -6.916 -24.615  0.00  0.00    +0.041 A 
ATOM     15  C   LIG    1       -3.232  -8.040 -24.418  0.00  0.00    +0.000 A 
ATOM     16  C   LIG    1       -2.868  -8.983 -23.481  0.00  0.00    +0.073 A 
ATOM     17  C   LIG    1       -1.706  -8.804 -22.728  0.00  0.00    -0.165 A 
ATOM     18  C   LIG    1       -0.919  -7.668 -22.931  0.00  0.00    +0.053 A 
ATOM     19  C   LIG    1       -1.294  -6.732 -23.872  0.00  0.00    -0.002 A 
ENDBRANCH  12  17
ENDBRANCH  10  12
ENDBRANCH   1  11
BRANCH   4  20
ATOM     20  O   LIG    1       -5.650 -11.648 -15.527  0.00  0.00    -0.459 OA
ATOM     21  H   LIG    1       -6.547 -11.291 -15.580  0.00  0.00    +0.406 HD
ENDBRANCH   4  20
BRANCH   5  22
ATOM     22  O   LIG    1       -4.214 -13.785 -16.494  0.00  0.00    -0.471 OA
ATOM     23  H   LIG    1       -4.829 -13.812 -15.748  0.00  0.00    +0.398 HD
ENDBRANCH   5  22
TORSDOF 6
ENDMDL
MODEL 9
REMARK VINA RESULT:      -6.6      8.205      9.026
REMARK  Name = CHEMBL169926
REMARK                            x       y       z     vdW  Elec       q    Type
REMARK                         _______ _______ _______ _____ _____    ______ ____
ROOT
ATOM      1  C   LIG    1       -1.427  -8.994 -20.711  0.00  0.00    -0.068 A 
ATOM      2  C   LIG    1       -0.182  -8.369 -20.567  0.00  0.00    +0.142 A 
ATOM      3  C   LIG    1        0.350  -7.646 -21.610  0.00  0.00    -0.067 A 
ATOM      4  C   LIG    1       -0.344  -7.535 -22.808  0.00  0.00    +0.164 A 
ATOM      5  C   LIG    1       -1.585  -8.153 -22.960  0.00  0.00    +0.086 A 
ATOM      6  C   LIG    1       -2.124  -8.884 -21.921  0.00  0.00    +0.094 A 
ENDROOT
BRANCH   3   7
ATOM      7  N   LIG    1        1.667  -6.986 -21.456  0.00  0.00    +0.034 N 
ATOM      8  O   LIG    1        1.808  -6.101 -20.647  0.00  0.00    -0.130 OA
ATOM      9  O   LIG    1        2.601  -7.334 -22.142  0.00  0.00    -0.158 OA
ENDBRANCH   3   7
BRANCH   1  11
ATOM     10  C   LIG    1       -3.336  -9.948 -19.519  0.00  0.00    -0.085 C 
ATOM     11  C   LIG    1       -1.998  -9.766 -19.599  0.00  0.00    +0.140 C 
BRANCH  10  12
ATOM     12  C   LIG    1       -3.886 -10.693 -18.446  0.00  0.00    +0.424 C 
ATOM     13  O   LIG    1       -4.489 -10.123 -17.555  0.00  0.00    -0.453 OA
BRANCH  12  17
ATOM     14  C   LIG    1       -3.433 -14.917 -18.341  0.00  0.00    +0.041 A 
ATOM     15  C   LIG    1       -3.771 -14.230 -17.187  0.00  0.00    +0.000 A 
ATOM     16  C   LIG    1       -3.919 -12.860 -17.215  0.00  0.00    +0.073 A 
ATOM     17  C   LIG    1       -3.729 -12.163 -18.409  0.00  0.00    -0.165 A 
ATOM     18  C   LIG    1       -3.389 -12.861 -19.570  0.00  0.00    +0.053 A 
ATOM     19  C   LIG    1       -3.243 -14.232 -19.529  0.00  0.00    -0.002 A 
ENDBRANCH  12  17
ENDBRANCH  10  12
ENDBRANCH   1  11
BRANCH   4  20
ATOM     20  O   LIG    1        0.186  -6.820 -23.834  0.00  0.00    -0.459 OA
ATOM     21  H   LIG    1       -0.451  -6.590 -24.524  0.00  0.00    +0.406 HD
ENDBRANCH   4  20
BRANCH   5  22
ATOM     22  O   LIG    1       -2.262  -8.040 -24.134  0.00  0.00    -0.471 OA
ATOM     23  H   LIG    1       -3.185  -8.325 -24.086  0.00  0.00    +0.398 HD
ENDBRANCH   5  22
TORSDOF 6
ENDMDL
