MODEL 1
REMARK VINA RESULT:      -6.3      0.000      0.000
REMARK  Name = CHEMBL1091982
REMARK                            x       y       z     vdW  Elec       q    Type
REMARK                         _______ _______ _______ _____ _____    ______ ____
ROOT
ATOM      1  C   LIG    1        6.073  -7.344 -19.291  0.00  0.00    -0.269 A 
ATOM      2  C   LIG    1        6.724  -6.295 -19.868  0.00  0.00    +0.101 A 
ATOM      3 CL   LIG    1        7.111  -6.335 -21.559  0.00  0.00    -0.034 Cl
ATOM      4  C   LIG    1        7.083  -5.180 -19.090  0.00  0.00    -0.216 A 
ATOM      5  C   LIG    1        7.759  -4.001 -19.505  0.00  0.00    +0.109 A 
ATOM      6  C   LIG    1        8.033  -3.006 -18.620  0.00  0.00    +0.018 A 
ATOM      7  C   LIG    1        7.662  -3.105 -17.274  0.00  0.00    +0.331 A 
ATOM      8  O   LIG    1        7.948  -2.096 -16.410  0.00  0.00    -0.620 OA
ATOM      9  C   LIG    1        7.002  -4.238 -16.832  0.00  0.00    -0.164 A 
ATOM     10  C   LIG    1        6.720  -5.251 -17.723  0.00  0.00    +0.012 A 
ATOM     11  S   LIG    1        5.910  -6.825 -17.592  0.00  0.00    +0.116 S 
ENDROOT
BRANCH   9  12
ATOM     12  N   LIG    1        6.601  -4.361 -15.413  0.00  0.00    +0.061 N 
ATOM     13  O   LIG    1        7.044  -5.260 -14.736  0.00  0.00    -0.160 OA
ATOM     14  O   LIG    1        5.831  -3.564 -14.931  0.00  0.00    -0.160 OA
ENDBRANCH   9  12
BRANCH   1  15
ATOM     15  C   LIG    1        5.615  -8.588 -19.914  0.00  0.00    +0.559 C 
ATOM     16  O   LIG    1        5.984  -9.660 -19.473  0.00  0.00    -0.477 OA
BRANCH  15  17
ATOM     17  O   LIG    1        4.785  -8.546 -20.977  0.00  0.00    -0.349 OA
BRANCH  17  18
ATOM     18  C   LIG    1        3.457  -9.036 -20.784  0.00  0.00    +0.483 C 
BRANCH  18  19
ATOM     19  O   LIG    1        2.678  -8.047 -20.108  0.00  0.00    -0.356 OA
BRANCH  19  20
ATOM     20  C   LIG    1        1.853  -7.302 -20.860  0.00  0.00    +0.467 C 
ATOM     21  O   LIG    1        1.838  -6.101 -20.733  0.00  0.00    -0.478 OA
BRANCH  20  22
ATOM     22  C   LIG    1        0.945  -7.965 -21.865  0.00  0.00    +0.224 C 
BRANCH  22  24
ATOM     23  C   LIG    1       -1.405  -8.037 -22.708  0.00  0.00    +0.027 C 
ATOM     24  C   LIG    1       -0.511  -7.629 -21.535  0.00  0.00    -0.042 C 
ATOM     25  C   LIG    1       -0.937  -8.392 -20.279  0.00  0.00    +0.037 C 
ENDBRANCH  22  24
BRANCH  22  26
ATOM     26  N   LIG    1        1.268  -7.478 -23.212  0.00  0.00    -0.830 NA
ATOM     27  H   LIG    1        1.949  -8.074 -23.658  0.00  0.00    +0.355 HD
ATOM     28  H   LIG    1        1.587  -6.521 -23.184  0.00  0.00    +0.354 HD
ENDBRANCH  22  26
ENDBRANCH  20  22
ENDBRANCH  19  20
ENDBRANCH  18  19
ENDBRANCH  17  18
ENDBRANCH  15  17
ENDBRANCH   1  15
BRANCH   6  29
ATOM     29  O   LIG    1        8.682  -1.892 -19.051  0.00  0.00    -0.478 OA
ATOM     30  H   LIG    1        8.335  -1.530 -19.878  0.00  0.00    +0.378 HD
ENDBRANCH   6  29
TORSDOF 10
ENDMDL
MODEL 2
REMARK VINA RESULT:      -6.1      1.742      2.672
REMARK  Name = CHEMBL1091982
REMARK                            x       y       z     vdW  Elec       q    Type
REMARK                         _______ _______ _______ _____ _____    ______ ____
ROOT
ATOM      1  C   LIG    1        6.846  -7.015 -20.343  0.00  0.00    -0.269 A 
ATOM      2  C   LIG    1        6.593  -7.143 -19.009  0.00  0.00    +0.101 A 
ATOM      3 CL   LIG    1        6.023  -8.653 -18.373  0.00  0.00    -0.034 Cl
ATOM      4  C   LIG    1        6.796  -6.048 -18.151  0.00  0.00    -0.216 A 
ATOM      5  C   LIG    1        6.591  -5.986 -16.746  0.00  0.00    +0.109 A 
ATOM      6  C   LIG    1        6.836  -4.840 -16.056  0.00  0.00    +0.018 A 
ATOM      7  C   LIG    1        7.296  -3.685 -16.699  0.00  0.00    +0.331 A 
ATOM      8  O   LIG    1        7.533  -2.553 -15.987  0.00  0.00    -0.620 OA
ATOM      9  C   LIG    1        7.508  -3.708 -18.067  0.00  0.00    -0.164 A 
ATOM     10  C   LIG    1        7.262  -4.865 -18.774  0.00  0.00    +0.012 A 
ATOM     11  S   LIG    1        7.401  -5.325 -20.483  0.00  0.00    +0.116 S 
ENDROOT
BRANCH   9  12
ATOM     12  N   LIG    1        7.994  -2.497 -18.765  0.00  0.00    +0.061 N 
ATOM     13  O   LIG    1        9.181  -2.276 -18.834  0.00  0.00    -0.160 OA
ATOM     14  O   LIG    1        7.206  -1.730 -19.267  0.00  0.00    -0.160 OA
ENDBRANCH   9  12
BRANCH   1  15
ATOM     15  C   LIG    1        6.702  -8.019 -21.399  0.00  0.00    +0.559 C 
ATOM     16  O   LIG    1        7.681  -8.614 -21.809  0.00  0.00    -0.477 OA
BRANCH  15  17
ATOM     17  O   LIG    1        5.486  -8.283 -21.919  0.00  0.00    -0.349 OA
BRANCH  17  18
ATOM     18  C   LIG    1        4.445  -7.343 -21.646  0.00  0.00    +0.483 C 
BRANCH  18  19
ATOM     19  O   LIG    1        3.520  -7.913 -20.717  0.00  0.00    -0.356 OA
BRANCH  19  20
ATOM     20  C   LIG    1        2.253  -7.472 -20.770  0.00  0.00    +0.467 C 
ATOM     21  O   LIG    1        2.019  -6.294 -20.650  0.00  0.00    -0.478 OA
BRANCH  20  22
ATOM     22  C   LIG    1        1.125  -8.448 -20.979  0.00  0.00    +0.224 C 
BRANCH  22  24
ATOM     23  C   LIG    1       -0.797  -7.564 -22.308  0.00  0.00    +0.027 C 
ATOM     24  C   LIG    1       -0.211  -7.707 -20.902  0.00  0.00    -0.042 C 
ATOM     25  C   LIG    1       -1.183  -8.496 -20.022  0.00  0.00    +0.037 C 
ENDBRANCH  22  24
BRANCH  22  26
ATOM     26  N   LIG    1        1.260  -9.077 -22.299  0.00  0.00    -0.830 NA
ATOM     27  H   LIG    1        0.361  -9.361 -22.658  0.00  0.00    +0.355 HD
ATOM     28  H   LIG    1        1.898  -9.859 -22.264  0.00  0.00    +0.354 HD
ENDBRANCH  22  26
ENDBRANCH  20  22
ENDBRANCH  19  20
ENDBRANCH  18  19
ENDBRANCH  17  18
ENDBRANCH  15  17
ENDBRANCH   1  15
BRANCH   6  29
ATOM     29  O   LIG    1        6.628  -4.815 -14.713  0.00  0.00    -0.478 OA
ATOM     30  H   LIG    1        6.187  -5.604 -14.368  0.00  0.00    +0.378 HD
ENDBRANCH   6  29
TORSDOF 10
ENDMDL
MODEL 3
REMARK VINA RESULT:      -6.0      7.159      9.771
REMARK  Name = CHEMBL1091982
REMARK                            x       y       z     vdW  Elec       q    Type
REMARK                         _______ _______ _______ _____ _____    ______ ____
ROOT
ATOM      1  C   LIG    1       -2.508 -10.863 -21.098  0.00  0.00    -0.269 A 
ATOM      2  C   LIG    1       -3.046 -10.109 -22.098  0.00  0.00    +0.101 A 
ATOM      3 CL   LIG    1       -4.594 -10.525 -22.763  0.00  0.00    -0.034 Cl
ATOM      4  C   LIG    1       -2.344  -8.994 -22.590  0.00  0.00    -0.216 A 
ATOM      5  C   LIG    1       -2.736  -8.095 -23.618  0.00  0.00    +0.109 A 
ATOM      6  C   LIG    1       -1.935  -7.057 -23.979  0.00  0.00    +0.018 A 
ATOM      7  C   LIG    1       -0.702  -6.837 -23.355  0.00  0.00    +0.331 A 
ATOM      8  O   LIG    1        0.080  -5.792 -23.735  0.00  0.00    -0.620 OA
ATOM      9  C   LIG    1       -0.286  -7.692 -22.350  0.00  0.00    -0.164 A 
ATOM     10  C   LIG    1       -1.092  -8.746 -21.978  0.00  0.00    +0.012 A 
ATOM     11  S   LIG    1       -0.958 -10.040 -20.770  0.00  0.00    +0.116 S 
ENDROOT
BRANCH   9  12
ATOM     12  N   LIG    1        1.014  -7.475 -21.678  0.00  0.00    +0.061 N 
ATOM     13  O   LIG    1        2.020  -7.967 -22.136  0.00  0.00    -0.160 OA
ATOM     14  O   LIG    1        1.072  -6.807 -20.672  0.00  0.00    -0.160 OA
ENDBRANCH   9  12
BRANCH   1  15
ATOM     15  C   LIG    1       -3.065 -12.051 -20.449  0.00  0.00    +0.559 C 
ATOM     16  O   LIG    1       -2.611 -13.151 -20.702  0.00  0.00    -0.477 OA
BRANCH  15  17
ATOM     17  O   LIG    1       -4.083 -11.927 -19.573  0.00  0.00    -0.349 OA
BRANCH  17  18
ATOM     18  C   LIG    1       -3.749 -11.531 -18.241  0.00  0.00    +0.483 C 
BRANCH  18  19
ATOM     19  O   LIG    1       -4.896 -10.952 -17.615  0.00  0.00    -0.356 OA
BRANCH  19  20
ATOM     20  C   LIG    1       -4.936  -9.612 -17.537  0.00  0.00    +0.467 C 
ATOM     21  O   LIG    1       -4.176  -8.946 -18.198  0.00  0.00    -0.478 OA
BRANCH  20  22
ATOM     22  C   LIG    1       -5.930  -8.940 -16.626  0.00  0.00    +0.224 C 
BRANCH  22  24
ATOM     23  C   LIG    1       -8.332  -8.252 -16.647  0.00  0.00    +0.027 C 
ATOM     24  C   LIG    1       -7.040  -8.301 -17.465  0.00  0.00    -0.042 C 
ATOM     25  C   LIG    1       -6.629  -6.880 -17.856  0.00  0.00    +0.037 C 
ENDBRANCH  22  24
BRANCH  22  26
ATOM     26  N   LIG    1       -6.514  -9.935 -15.718  0.00  0.00    -0.830 NA
ATOM     27  H   LIG    1       -6.183  -9.801 -14.774  0.00  0.00    +0.355 HD
ATOM     28  H   LIG    1       -6.322 -10.873 -16.038  0.00  0.00    +0.354 HD
ENDBRANCH  22  26
ENDBRANCH  20  22
ENDBRANCH  19  20
ENDBRANCH  18  19
ENDBRANCH  17  18
ENDBRANCH  15  17
ENDBRANCH   1  15
BRANCH   6  29
ATOM     29  O   LIG    1       -2.341  -6.216 -24.967  0.00  0.00    -0.478 OA
ATOM     30  H   LIG    1       -1.703  -6.121 -25.689  0.00  0.00    +0.378 HD
ENDBRANCH   6  29
TORSDOF 10
ENDMDL
MODEL 4
REMARK VINA RESULT:      -5.7      5.875     10.609
REMARK  Name = CHEMBL1091982
REMARK                            x       y       z     vdW  Elec       q    Type
REMARK                         _______ _______ _______ _____ _____    ______ ____
ROOT
ATOM      1  C   LIG    1       -2.195  -9.128 -22.215  0.00  0.00    -0.269 A 
ATOM      2  C   LIG    1       -2.095  -9.222 -20.859  0.00  0.00    +0.101 A 
ATOM      3 CL   LIG    1       -1.171  -8.050 -19.972  0.00  0.00    -0.034 Cl
ATOM      4  C   LIG    1       -2.741 -10.270 -20.180  0.00  0.00    -0.216 A 
ATOM      5  C   LIG    1       -2.755 -10.534 -18.784  0.00  0.00    +0.109 A 
ATOM      6  C   LIG    1       -3.435 -11.599 -18.283  0.00  0.00    +0.018 A 
ATOM      7  C   LIG    1       -4.143 -12.471 -19.118  0.00  0.00    +0.331 A 
ATOM      8  O   LIG    1       -4.814 -13.529 -18.592  0.00  0.00    -0.620 OA
ATOM      9  C   LIG    1       -4.152 -12.247 -20.483  0.00  0.00    -0.164 A 
ATOM     10  C   LIG    1       -3.466 -11.169 -20.999  0.00  0.00    +0.012 A 
ATOM     11  S   LIG    1       -3.226 -10.523 -22.635  0.00  0.00    +0.116 S 
ENDROOT
BRANCH   9  12
ATOM     12  N   LIG    1       -4.895 -13.157 -21.383  0.00  0.00    +0.061 N 
ATOM     13  O   LIG    1       -6.017 -12.874 -21.737  0.00  0.00    -0.160 OA
ATOM     14  O   LIG    1       -4.382 -14.183 -21.763  0.00  0.00    -0.160 OA
ENDBRANCH   9  12
BRANCH   1  15
ATOM     15  C   LIG    1       -1.606  -8.127 -23.107  0.00  0.00    +0.559 C 
ATOM     16  O   LIG    1       -2.309  -7.531 -23.900  0.00  0.00    -0.477 OA
BRANCH  15  17
ATOM     17  O   LIG    1       -0.284  -7.865 -23.049  0.00  0.00    -0.349 OA
BRANCH  17  18
ATOM     18  C   LIG    1        0.104  -6.493 -22.960  0.00  0.00    +0.483 C 
BRANCH  18  19
ATOM     19  O   LIG    1        1.525  -6.407 -22.832  0.00  0.00    -0.356 OA
BRANCH  19  20
ATOM     20  C   LIG    1        2.058  -6.825 -21.672  0.00  0.00    +0.467 C 
ATOM     21  O   LIG    1        1.889  -6.182 -20.664  0.00  0.00    -0.478 OA
BRANCH  20  22
ATOM     22  C   LIG    1        2.868  -8.095 -21.630  0.00  0.00    +0.224 C 
BRANCH  22  24
ATOM     23  C   LIG    1        1.520 -10.154 -21.199  0.00  0.00    +0.027 C 
ATOM     24  C   LIG    1        2.311  -9.019 -20.545  0.00  0.00    -0.042 C 
ATOM     25  C   LIG    1        3.466  -9.604 -19.731  0.00  0.00    +0.037 C 
ENDBRANCH  22  24
BRANCH  22  26
ATOM     26  N   LIG    1        2.792  -8.768 -22.933  0.00  0.00    -0.830 NA
ATOM     27  H   LIG    1        2.242  -9.612 -22.872  0.00  0.00    +0.355 HD
ATOM     28  H   LIG    1        3.714  -8.962 -23.295  0.00  0.00    +0.354 HD
ENDBRANCH  22  26
ENDBRANCH  20  22
ENDBRANCH  19  20
ENDBRANCH  18  19
ENDBRANCH  17  18
ENDBRANCH  15  17
ENDBRANCH   1  15
BRANCH   6  29
ATOM     29  O   LIG    1       -3.426 -11.823 -16.942  0.00  0.00    -0.478 OA
ATOM     30  H   LIG    1       -2.731 -11.345 -16.467  0.00  0.00    +0.378 HD
ENDBRANCH   6  29
TORSDOF 10
ENDMDL
MODEL 5
REMARK VINA RESULT:      -5.5      5.281     10.450
REMARK  Name = CHEMBL1091982
REMARK                            x       y       z     vdW  Elec       q    Type
REMARK                         _______ _______ _______ _____ _____    ______ ____
ROOT
ATOM      1  C   LIG    1       -1.067 -10.019 -22.103  0.00  0.00    -0.269 A 
ATOM      2  C   LIG    1       -1.468  -9.649 -20.854  0.00  0.00    +0.101 A 
ATOM      3 CL   LIG    1       -0.984  -8.114 -20.204  0.00  0.00    -0.034 Cl
ATOM      4  C   LIG    1       -2.275 -10.514 -20.093  0.00  0.00    -0.216 A 
ATOM      5  C   LIG    1       -2.789 -10.309 -18.785  0.00  0.00    +0.109 A 
ATOM      6  C   LIG    1       -3.561 -11.253 -18.184  0.00  0.00    +0.018 A 
ATOM      7  C   LIG    1       -3.876 -12.455 -18.827  0.00  0.00    +0.331 A 
ATOM      8  O   LIG    1       -4.649 -13.383 -18.203  0.00  0.00    -0.620 OA
ATOM      9  C   LIG    1       -3.393 -12.691 -20.101  0.00  0.00    -0.164 A 
ATOM     10  C   LIG    1       -2.610 -11.739 -20.718  0.00  0.00    +0.012 A 
ATOM     11  S   LIG    1       -1.812 -11.628 -22.300  0.00  0.00    +0.116 S 
ENDROOT
BRANCH   9  12
ATOM     12  N   LIG    1       -3.715 -13.956 -20.798  0.00  0.00    +0.061 N 
ATOM     13  O   LIG    1       -4.630 -13.995 -21.588  0.00  0.00    -0.160 OA
ATOM     14  O   LIG    1       -3.064 -14.950 -20.578  0.00  0.00    -0.160 OA
ENDBRANCH   9  12
BRANCH   1  15
ATOM     15  C   LIG    1       -0.233  -9.276 -23.051  0.00  0.00    +0.559 C 
ATOM     16  O   LIG    1       -0.742  -8.471 -23.807  0.00  0.00    -0.477 OA
BRANCH  15  17
ATOM     17  O   LIG    1        1.099  -9.487 -23.088  0.00  0.00    -0.349 OA
BRANCH  17  18
ATOM     18  C   LIG    1        1.938  -8.409 -22.668  0.00  0.00    +0.483 C 
BRANCH  18  19
ATOM     19  O   LIG    1        2.111  -8.464 -21.250  0.00  0.00    -0.356 OA
BRANCH  19  20
ATOM     20  C   LIG    1        2.954  -7.574 -20.704  0.00  0.00    +0.467 C 
ATOM     21  O   LIG    1        2.584  -6.445 -20.490  0.00  0.00    -0.478 OA
BRANCH  20  22
ATOM     22  C   LIG    1        4.363  -7.984 -20.359  0.00  0.00    +0.224 C 
BRANCH  22  24
ATOM     23  C   LIG    1        5.453  -7.249 -18.235  0.00  0.00    +0.027 C 
ATOM     24  C   LIG    1        5.073  -6.826 -19.656  0.00  0.00    -0.042 C 
ATOM     25  C   LIG    1        6.338  -6.457 -20.434  0.00  0.00    +0.037 C 
ENDBRANCH  22  24
BRANCH  22  26
ATOM     26  N   LIG    1        4.328  -9.151 -19.468  0.00  0.00    -0.830 NA
ATOM     27  H   LIG    1        3.863  -9.930 -19.911  0.00  0.00    +0.355 HD
ATOM     28  H   LIG    1        3.889  -8.922 -18.588  0.00  0.00    +0.354 HD
ENDBRANCH  22  26
ENDBRANCH  20  22
ENDBRANCH  19  20
ENDBRANCH  18  19
ENDBRANCH  17  18
ENDBRANCH  15  17
ENDBRANCH   1  15
BRANCH   6  29
ATOM     29  O   LIG    1       -4.037 -11.024 -16.930  0.00  0.00    -0.478 OA
ATOM     30  H   LIG    1       -4.324 -11.823 -16.467  0.00  0.00    +0.378 HD
ENDBRANCH   6  29
TORSDOF 10
ENDMDL
MODEL 6
REMARK VINA RESULT:      -5.5     10.446     12.346
REMARK  Name = CHEMBL1091982
REMARK                            x       y       z     vdW  Elec       q    Type
REMARK                         _______ _______ _______ _____ _____    ______ ____
ROOT
ATOM      1  C   LIG    1       -2.499 -14.931 -21.061  0.00  0.00    -0.269 A 
ATOM      2  C   LIG    1       -2.994 -15.059 -19.797  0.00  0.00    +0.101 A 
ATOM      3 CL   LIG    1       -3.153 -16.631 -19.081  0.00  0.00    -0.034 Cl
ATOM      4  C   LIG    1       -3.377 -13.914 -19.076  0.00  0.00    -0.216 A 
ATOM      5  C   LIG    1       -3.910 -13.844 -17.761  0.00  0.00    +0.109 A 
ATOM      6  C   LIG    1       -4.231 -12.646 -17.203  0.00  0.00    +0.018 A 
ATOM      7  C   LIG    1       -4.052 -11.445 -17.898  0.00  0.00    +0.331 A 
ATOM      8  O   LIG    1       -4.382 -10.262 -17.318  0.00  0.00    -0.620 OA
ATOM      9  C   LIG    1       -3.535 -11.474 -19.182  0.00  0.00    -0.164 A 
ATOM     10  C   LIG    1       -3.206 -12.684 -19.755  0.00  0.00    +0.012 A 
ATOM     11  S   LIG    1       -2.530 -13.166 -21.324  0.00  0.00    +0.116 S 
ENDROOT
BRANCH   9  12
ATOM     12  N   LIG    1       -3.337 -10.215 -19.934  0.00  0.00    +0.061 N 
ATOM     13  O   LIG    1       -2.474  -9.439 -19.596  0.00  0.00    -0.160 OA
ATOM     14  O   LIG    1       -4.039  -9.962 -20.885  0.00  0.00    -0.160 OA
ENDBRANCH   9  12
BRANCH   1  15
ATOM     15  C   LIG    1       -2.047 -15.982 -21.975  0.00  0.00    +0.559 C 
ATOM     16  O   LIG    1       -1.077 -16.659 -21.692  0.00  0.00    -0.477 OA
BRANCH  15  17
ATOM     17  O   LIG    1       -2.707 -16.200 -23.132  0.00  0.00    -0.349 OA
BRANCH  17  18
ATOM     18  C   LIG    1       -4.129 -16.315 -23.057  0.00  0.00    +0.483 C 
BRANCH  18  19
ATOM     19  O   LIG    1       -4.732 -15.239 -23.779  0.00  0.00    -0.356 OA
BRANCH  19  20
ATOM     20  C   LIG    1       -6.066 -15.272 -23.921  0.00  0.00    +0.467 C 
ATOM     21  O   LIG    1       -6.657 -16.321 -23.822  0.00  0.00    -0.478 OA
BRANCH  20  22
ATOM     22  C   LIG    1       -6.826 -14.002 -24.203  0.00  0.00    +0.224 C 
BRANCH  22  24
ATOM     23  C   LIG    1       -6.052 -11.900 -23.096  0.00  0.00    +0.027 C 
ATOM     24  C   LIG    1       -6.904 -13.160 -22.928  0.00  0.00    -0.042 C 
ATOM     25  C   LIG    1       -8.358 -12.762 -22.668  0.00  0.00    +0.037 C 
ENDBRANCH  22  24
BRANCH  22  26
ATOM     26  N   LIG    1       -6.134 -13.241 -25.252  0.00  0.00    -0.830 NA
ATOM     27  H   LIG    1       -6.633 -12.390 -25.469  0.00  0.00    +0.355 HD
ATOM     28  H   LIG    1       -6.001 -13.803 -26.079  0.00  0.00    +0.354 HD
ENDBRANCH  22  26
ENDBRANCH  20  22
ENDBRANCH  19  20
ENDBRANCH  18  19
ENDBRANCH  17  18
ENDBRANCH  15  17
ENDBRANCH   1  15
BRANCH   6  29
ATOM     29  O   LIG    1       -4.740 -12.615 -15.942  0.00  0.00    -0.478 OA
ATOM     30  H   LIG    1       -5.661 -12.905 -15.882  0.00  0.00    +0.378 HD
ENDBRANCH   6  29
TORSDOF 10
ENDMDL
MODEL 7
REMARK VINA RESULT:      -5.3     10.493     13.563
REMARK  Name = CHEMBL1091982
REMARK                            x       y       z     vdW  Elec       q    Type
REMARK                         _______ _______ _______ _____ _____    ______ ____
ROOT
ATOM      1  C   LIG    1       -2.514 -15.068 -21.076  0.00  0.00    -0.269 A 
ATOM      2  C   LIG    1       -2.987 -15.113 -19.798  0.00  0.00    +0.101 A 
ATOM      3 CL   LIG    1       -3.121 -16.635 -18.975  0.00  0.00    -0.034 Cl
ATOM      4  C   LIG    1       -3.366 -13.925 -19.149  0.00  0.00    -0.216 A 
ATOM      5  C   LIG    1       -3.877 -13.770 -17.832  0.00  0.00    +0.109 A 
ATOM      6  C   LIG    1       -4.198 -12.539 -17.350  0.00  0.00    +0.018 A 
ATOM      7  C   LIG    1       -4.040 -11.387 -18.128  0.00  0.00    +0.331 A 
ATOM      8  O   LIG    1       -4.369 -10.169 -17.623  0.00  0.00    -0.620 OA
ATOM      9  C   LIG    1       -3.545 -11.499 -19.415  0.00  0.00    -0.164 A 
ATOM     10  C   LIG    1       -3.217 -12.742 -19.912  0.00  0.00    +0.012 A 
ATOM     11  S   LIG    1       -2.563 -13.325 -21.456  0.00  0.00    +0.116 S 
ENDROOT
BRANCH   9  12
ATOM     12  N   LIG    1       -3.370 -10.292 -20.254  0.00  0.00    +0.061 N 
ATOM     13  O   LIG    1       -4.089 -10.109 -21.209  0.00  0.00    -0.160 OA
ATOM     14  O   LIG    1       -2.508  -9.488 -19.984  0.00  0.00    -0.160 OA
ENDBRANCH   9  12
BRANCH   1  15
ATOM     15  C   LIG    1       -2.070 -16.175 -21.925  0.00  0.00    +0.559 C 
ATOM     16  O   LIG    1       -0.882 -16.397 -22.063  0.00  0.00    -0.477 OA
BRANCH  15  17
ATOM     17  O   LIG    1       -2.978 -16.948 -22.555  0.00  0.00    -0.349 OA
BRANCH  17  18
ATOM     18  C   LIG    1       -3.211 -18.250 -22.013  0.00  0.00    +0.483 C 
BRANCH  18  19
ATOM     19  O   LIG    1       -4.611 -18.426 -21.785  0.00  0.00    -0.356 OA
BRANCH  19  20
ATOM     20  C   LIG    1       -5.231 -19.374 -22.505  0.00  0.00    +0.467 C 
ATOM     21  O   LIG    1       -4.603 -20.043 -23.290  0.00  0.00    -0.478 OA
BRANCH  20  22
ATOM     22  C   LIG    1       -6.711 -19.604 -22.333  0.00  0.00    +0.224 C 
BRANCH  22  24
ATOM     23  C   LIG    1       -7.729 -21.061 -24.089  0.00  0.00    +0.027 C 
ATOM     24  C   LIG    1       -7.387 -19.620 -23.706  0.00  0.00    -0.042 C 
ATOM     25  C   LIG    1       -8.669 -18.788 -23.652  0.00  0.00    +0.037 C 
ENDBRANCH  22  24
BRANCH  22  26
ATOM     26  N   LIG    1       -6.932 -20.891 -21.663  0.00  0.00    -0.830 NA
ATOM     27  H   LIG    1       -7.676 -21.407 -22.109  0.00  0.00    +0.355 HD
ATOM     28  H   LIG    1       -7.122 -20.760 -20.680  0.00  0.00    +0.354 HD
ENDBRANCH  22  26
ENDBRANCH  20  22
ENDBRANCH  19  20
ENDBRANCH  18  19
ENDBRANCH  17  18
ENDBRANCH  15  17
ENDBRANCH   1  15
BRANCH   6  29
ATOM     29  O   LIG    1       -4.686 -12.427 -16.086  0.00  0.00    -0.478 OA
ATOM     30  H   LIG    1       -4.332 -13.082 -15.468  0.00  0.00    +0.378 HD
ENDBRANCH   6  29
TORSDOF 10
ENDMDL
MODEL 8
REMARK VINA RESULT:      -5.2     10.248     14.004
REMARK  Name = CHEMBL1091982
REMARK                            x       y       z     vdW  Elec       q    Type
REMARK                         _______ _______ _______ _____ _____    ______ ____
ROOT
ATOM      1  C   LIG    1       -4.314 -11.029 -22.625  0.00  0.00    -0.269 A 
ATOM      2  C   LIG    1       -4.833 -10.133 -23.511  0.00  0.00    +0.101 A 
ATOM      3 CL   LIG    1       -3.882  -8.780 -24.038  0.00  0.00    -0.034 Cl
ATOM      4  C   LIG    1       -6.142 -10.306 -23.996  0.00  0.00    -0.216 A 
ATOM      5  C   LIG    1       -6.851  -9.488 -24.915  0.00  0.00    +0.109 A 
ATOM      6  C   LIG    1       -8.123  -9.797 -25.286  0.00  0.00    +0.018 A 
ATOM      7  C   LIG    1       -8.776 -10.926 -24.779  0.00  0.00    +0.331 A 
ATOM      8  O   LIG    1      -10.047 -11.213 -25.165  0.00  0.00    -0.620 OA
ATOM      9  C   LIG    1       -8.116 -11.747 -23.882  0.00  0.00    -0.164 A 
ATOM     10  C   LIG    1       -6.828 -11.441 -23.501  0.00  0.00    +0.012 A 
ATOM     11  S   LIG    1       -5.645 -12.199 -22.415  0.00  0.00    +0.116 S 
ENDROOT
BRANCH   9  12
ATOM     12  N   LIG    1       -8.790 -12.946 -23.334  0.00  0.00    +0.061 N 
ATOM     13  O   LIG    1       -9.532 -12.842 -22.384  0.00  0.00    -0.160 OA
ATOM     14  O   LIG    1       -8.599 -14.029 -23.836  0.00  0.00    -0.160 OA
ENDBRANCH   9  12
BRANCH   1  15
ATOM     15  C   LIG    1       -2.988 -11.033 -22.002  0.00  0.00    +0.559 C 
ATOM     16  O   LIG    1       -2.164 -11.864 -22.333  0.00  0.00    -0.477 OA
BRANCH  15  17
ATOM     17  O   LIG    1       -2.681 -10.116 -21.061  0.00  0.00    -0.349 OA
BRANCH  17  18
ATOM     18  C   LIG    1       -2.637 -10.566 -19.706  0.00  0.00    +0.483 C 
BRANCH  18  19
ATOM     19  O   LIG    1       -3.814 -11.325 -19.417  0.00  0.00    -0.356 OA
BRANCH  19  20
ATOM     20  C   LIG    1       -3.790 -12.092 -18.316  0.00  0.00    +0.467 C 
ATOM     21  O   LIG    1       -3.521 -11.604 -17.245  0.00  0.00    -0.478 OA
BRANCH  20  22
ATOM     22  C   LIG    1       -4.098 -13.564 -18.418  0.00  0.00    +0.224 C 
BRANCH  22  24
ATOM     23  C   LIG    1       -2.596 -15.557 -18.519  0.00  0.00    +0.027 C 
ATOM     24  C   LIG    1       -3.001 -14.261 -19.224  0.00  0.00    -0.042 C 
ATOM     25  C   LIG    1       -3.524 -14.583 -20.625  0.00  0.00    +0.037 C 
ENDBRANCH  22  24
BRANCH  22  26
ATOM     26  N   LIG    1       -4.161 -14.145 -17.071  0.00  0.00    -0.830 NA
ATOM     27  H   LIG    1       -4.866 -13.688 -16.512  0.00  0.00    +0.355 HD
ATOM     28  H   LIG    1       -3.260 -14.106 -16.617  0.00  0.00    +0.354 HD
ENDBRANCH  22  26
ENDBRANCH  20  22
ENDBRANCH  19  20
ENDBRANCH  18  19
ENDBRANCH  17  18
ENDBRANCH  15  17
ENDBRANCH   1  15
BRANCH   6  29
ATOM     29  O   LIG    1       -8.774  -8.992 -26.167  0.00  0.00    -0.478 OA
ATOM     30  H   LIG    1       -9.550  -8.549 -25.797  0.00  0.00    +0.378 HD
ENDBRANCH   6  29
TORSDOF 10
ENDMDL
MODEL 9
REMARK VINA RESULT:      -5.2      8.235     11.399
REMARK  Name = CHEMBL1091982
REMARK                            x       y       z     vdW  Elec       q    Type
REMARK                         _______ _______ _______ _____ _____    ______ ____
ROOT
ATOM      1  C   LIG    1       -3.416 -12.616 -22.755  0.00  0.00    -0.269 A 
ATOM      2  C   LIG    1       -3.816 -11.794 -21.744  0.00  0.00    +0.101 A 
ATOM      3 CL   LIG    1       -4.353 -10.182 -22.095  0.00  0.00    -0.034 Cl
ATOM      4  C   LIG    1       -3.791 -12.255 -20.416  0.00  0.00    -0.216 A 
ATOM      5  C   LIG    1       -4.166 -11.555 -19.238  0.00  0.00    +0.109 A 
ATOM      6  C   LIG    1       -4.083 -12.149 -18.017  0.00  0.00    +0.018 A 
ATOM      7  C   LIG    1       -3.627 -13.465 -17.876  0.00  0.00    +0.331 A 
ATOM      8  O   LIG    1       -3.553 -14.036 -16.645  0.00  0.00    -0.620 OA
ATOM      9  C   LIG    1       -3.254 -14.179 -19.001  0.00  0.00    -0.164 A 
ATOM     10  C   LIG    1       -3.335 -13.584 -20.242  0.00  0.00    +0.012 A 
ATOM     11  S   LIG    1       -2.978 -14.118 -21.897  0.00  0.00    +0.116 S 
ENDROOT
BRANCH   9  12
ATOM     12  N   LIG    1       -2.770 -15.571 -18.873  0.00  0.00    +0.061 N 
ATOM     13  O   LIG    1       -3.496 -16.493 -19.171  0.00  0.00    -0.160 OA
ATOM     14  O   LIG    1       -1.651 -15.789 -18.471  0.00  0.00    -0.160 OA
ENDBRANCH   9  12
BRANCH   1  15
ATOM     15  C   LIG    1       -3.363 -12.337 -24.191  0.00  0.00    +0.559 C 
ATOM     16  O   LIG    1       -4.119 -12.912 -24.951  0.00  0.00    -0.477 OA
BRANCH  15  17
ATOM     17  O   LIG    1       -2.474 -11.443 -24.673  0.00  0.00    -0.349 OA
BRANCH  17  18
ATOM     18  C   LIG    1       -1.128 -11.547 -24.206  0.00  0.00    +0.483 C 
BRANCH  18  19
ATOM     19  O   LIG    1       -0.823 -10.422 -23.378  0.00  0.00    -0.356 OA
BRANCH  19  20
ATOM     20  C   LIG    1       -0.055 -10.649 -22.300  0.00  0.00    +0.467 C 
ATOM     21  O   LIG    1       -0.048 -11.741 -21.784  0.00  0.00    -0.478 OA
BRANCH  20  22
ATOM     22  C   LIG    1        0.797  -9.542 -21.736  0.00  0.00    +0.224 C 
BRANCH  22  24
ATOM     23  C   LIG    1       -0.662  -7.526 -21.511  0.00  0.00    +0.027 C 
ATOM     24  C   LIG    1       -0.035  -8.705 -20.762  0.00  0.00    -0.042 C 
ATOM     25  C   LIG    1       -1.141  -9.573 -20.159  0.00  0.00    +0.037 C 
ENDBRANCH  22  24
BRANCH  22  26
ATOM     26  N   LIG    1        1.945 -10.121 -21.028  0.00  0.00    -0.830 NA
ATOM     27  H   LIG    1        1.817 -11.111 -20.880  0.00  0.00    +0.355 HD
ATOM     28  H   LIG    1        2.110  -9.643 -20.154  0.00  0.00    +0.354 HD
ENDBRANCH  22  26
ENDBRANCH  20  22
ENDBRANCH  19  20
ENDBRANCH  18  19
ENDBRANCH  17  18
ENDBRANCH  15  17
ENDBRANCH   1  15
BRANCH   6  29
ATOM     29  O   LIG    1       -4.448 -11.449 -16.910  0.00  0.00    -0.478 OA
ATOM     30  H   LIG    1       -3.771 -11.424 -16.219  0.00  0.00    +0.378 HD
ENDBRANCH   6  29
TORSDOF 10
ENDMDL
