MODEL 1
REMARK VINA RESULT:      -7.6      0.000      0.000
REMARK  Name = CHEMBL167172
REMARK                            x       y       z     vdW  Elec       q    Type
REMARK                         _______ _______ _______ _____ _____    ______ ____
ROOT
ATOM      1  C   LIG    1       -2.714 -10.549 -19.761  0.00  0.00    +0.564 C 
ATOM      2  N   LIG    1       -2.048  -9.377 -19.792  0.00  0.00    -0.719 N 
ATOM      3  H   LIG    1       -2.136  -8.751 -19.056  0.00  0.00    +0.399 HD
ATOM      4  O   LIG    1       -2.604 -11.335 -20.683  0.00  0.00    -0.521 OA
ENDROOT
BRANCH   2   5
ATOM      5  C   LIG    1       -1.195  -9.049 -20.935  0.00  0.00    +0.184 C 
ATOM      6  C   LIG    1       -0.128 -10.133 -21.103  0.00  0.00    +0.024 C 
ATOM      7  C   LIG    1        0.764  -9.790 -22.297  0.00  0.00    -0.010 C 
ATOM      8  C   LIG    1        1.443  -8.440 -22.057  0.00  0.00    +0.016 C 
ATOM      9  C   LIG    1        0.376  -7.356 -21.890  0.00  0.00    -0.005 C 
ATOM     10  C   LIG    1       -0.476  -7.280 -23.157  0.00  0.00    +0.016 C 
ATOM     11  C   LIG    1       -1.155  -8.630 -23.399  0.00  0.00    -0.010 C 
ATOM     12  C   LIG    1       -0.088  -9.714 -23.565  0.00  0.00    +0.019 C 
ATOM     13  C   LIG    1       -2.047  -8.973 -22.203  0.00  0.00    +0.025 C 
ATOM     14  C   LIG    1       -0.516  -7.698 -20.695  0.00  0.00    +0.023 C 
ENDBRANCH   2   5
BRANCH   1  16
ATOM     15  C   LIG    1       -4.516  -9.957 -18.155  0.00  0.00    +0.153 A 
ATOM     16  C   LIG    1       -3.574 -10.880 -18.608  0.00  0.00    -0.128 A 
ATOM     17  C   LIG    1       -3.444 -12.118 -17.971  0.00  0.00    +0.075 A 
ATOM     18  C   LIG    1       -4.248 -12.432 -16.892  0.00  0.00    +0.080 A 
ATOM     19  C   LIG    1       -5.192 -11.516 -16.433  0.00  0.00    +0.157 A 
ATOM     20  C   LIG    1       -5.327 -10.272 -17.067  0.00  0.00    -0.043 A 
BRANCH  18  21
ATOM     21  O   LIG    1       -4.117 -13.638 -16.276  0.00  0.00    -0.478 OA
ATOM     22  H   LIG    1       -4.874 -13.882 -15.726  0.00  0.00    +0.394 HD
ENDBRANCH  18  21
BRANCH  19  23
ATOM     23  O   LIG    1       -5.979 -11.827 -15.373  0.00  0.00    -0.477 OA
ATOM     24  H   LIG    1       -5.784 -11.317 -14.575  0.00  0.00    +0.401 HD
ENDBRANCH  19  23
BRANCH  20  25
ATOM     25  C   LIG    1       -6.296  -9.328 -16.597  0.00  0.00    +0.252 C 
ATOM     26  N   LIG    1       -7.065  -8.579 -16.224  0.00  0.00    -0.392 NA
ENDBRANCH  20  25
ENDBRANCH   1  16
TORSDOF 5
ENDMDL
MODEL 2
REMARK VINA RESULT:      -7.6      0.041      1.558
REMARK  Name = CHEMBL167172
REMARK                            x       y       z     vdW  Elec       q    Type
REMARK                         _______ _______ _______ _____ _____    ______ ____
ROOT
ATOM      1  C   LIG    1       -2.759 -10.537 -19.772  0.00  0.00    +0.564 C 
ATOM      2  N   LIG    1       -2.052  -9.389 -19.784  0.00  0.00    -0.719 N 
ATOM      3  H   LIG    1       -2.102  -8.781 -19.030  0.00  0.00    +0.399 HD
ATOM      4  O   LIG    1       -2.697 -11.299 -20.718  0.00  0.00    -0.521 OA
ENDROOT
BRANCH   2   5
ATOM      5  C   LIG    1       -1.212  -9.059 -20.937  0.00  0.00    +0.184 C 
ATOM      6  C   LIG    1       -0.522  -7.714 -20.698  0.00  0.00    +0.024 C 
ATOM      7  C   LIG    1        0.355  -7.369 -21.902  0.00  0.00    -0.010 C 
ATOM      8  C   LIG    1       -0.515  -7.279 -23.158  0.00  0.00    +0.016 C 
ATOM      9  C   LIG    1       -1.203  -8.624 -23.398  0.00  0.00    -0.005 C 
ATOM     10  C   LIG    1       -0.145  -9.712 -23.586  0.00  0.00    +0.016 C 
ATOM     11  C   LIG    1        0.725  -9.802 -22.331  0.00  0.00    -0.010 C 
ATOM     12  C   LIG    1        1.413  -8.457 -22.091  0.00  0.00    +0.019 C 
ATOM     13  C   LIG    1       -0.154 -10.147 -21.126  0.00  0.00    +0.025 C 
ATOM     14  C   LIG    1       -2.081  -8.969 -22.194  0.00  0.00    +0.023 C 
ENDBRANCH   2   5
BRANCH   1  16
ATOM     15  C   LIG    1       -4.553  -9.955 -18.154  0.00  0.00    +0.153 A 
ATOM     16  C   LIG    1       -3.606 -10.870 -18.610  0.00  0.00    -0.128 A 
ATOM     17  C   LIG    1       -3.459 -12.103 -17.967  0.00  0.00    +0.075 A 
ATOM     18  C   LIG    1       -4.250 -12.419 -16.880  0.00  0.00    +0.080 A 
ATOM     19  C   LIG    1       -5.199 -11.510 -16.418  0.00  0.00    +0.157 A 
ATOM     20  C   LIG    1       -5.352 -10.272 -17.057  0.00  0.00    -0.043 A 
BRANCH  18  21
ATOM     21  O   LIG    1       -4.102 -13.621 -16.259  0.00  0.00    -0.478 OA
ATOM     22  H   LIG    1       -3.242 -13.740 -15.834  0.00  0.00    +0.394 HD
ENDBRANCH  18  21
BRANCH  19  23
ATOM     23  O   LIG    1       -5.974 -11.824 -15.350  0.00  0.00    -0.477 OA
ATOM     24  H   LIG    1       -5.475 -12.008 -14.542  0.00  0.00    +0.401 HD
ENDBRANCH  19  23
BRANCH  20  25
ATOM     25  C   LIG    1       -6.326  -9.335 -16.584  0.00  0.00    +0.252 C 
ATOM     26  N   LIG    1       -7.099  -8.591 -16.209  0.00  0.00    -0.392 NA
ENDBRANCH  20  25
ENDBRANCH   1  16
TORSDOF 5
ENDMDL
MODEL 3
REMARK VINA RESULT:      -7.2      1.680      2.353
REMARK  Name = CHEMBL167172
REMARK                            x       y       z     vdW  Elec       q    Type
REMARK                         _______ _______ _______ _____ _____    ______ ____
ROOT
ATOM      1  C   LIG    1       -2.784  -9.954 -20.284  0.00  0.00    +0.564 C 
ATOM      2  N   LIG    1       -1.676  -9.195 -20.157  0.00  0.00    -0.719 N 
ATOM      3  H   LIG    1       -1.354  -8.952 -19.275  0.00  0.00    +0.399 HD
ATOM      4  O   LIG    1       -3.189 -10.258 -21.389  0.00  0.00    -0.521 OA
ENDROOT
BRANCH   2   5
ATOM      5  C   LIG    1       -0.962  -8.737 -21.350  0.00  0.00    +0.184 C 
ATOM      6  C   LIG    1       -0.088  -9.872 -21.890  0.00  0.00    +0.024 C 
ATOM      7  C   LIG    1        0.658  -9.393 -23.136  0.00  0.00    -0.010 C 
ATOM      8  C   LIG    1        1.542  -8.197 -22.773  0.00  0.00    +0.016 C 
ATOM      9  C   LIG    1        0.669  -7.063 -22.235  0.00  0.00    -0.005 C 
ATOM     10  C   LIG    1       -0.341  -6.644 -23.305  0.00  0.00    +0.016 C 
ATOM     11  C   LIG    1       -1.225  -7.839 -23.668  0.00  0.00    -0.010 C 
ATOM     12  C   LIG    1       -0.351  -8.974 -24.206  0.00  0.00    +0.019 C 
ATOM     13  C   LIG    1       -1.971  -8.318 -22.420  0.00  0.00    +0.025 C 
ATOM     14  C   LIG    1       -0.078  -7.541 -20.988  0.00  0.00    +0.023 C 
ENDBRANCH   2   5
BRANCH   1  16
ATOM     15  C   LIG    1       -3.450 -11.758 -18.710  0.00  0.00    +0.153 A 
ATOM     16  C   LIG    1       -3.504 -10.416 -19.081  0.00  0.00    -0.128 A 
ATOM     17  C   LIG    1       -4.239  -9.507 -18.314  0.00  0.00    +0.075 A 
ATOM     18  C   LIG    1       -4.914  -9.934 -17.187  0.00  0.00    +0.080 A 
ATOM     19  C   LIG    1       -4.866 -11.274 -16.809  0.00  0.00    +0.157 A 
ATOM     20  C   LIG    1       -4.130 -12.191 -17.574  0.00  0.00    -0.043 A 
BRANCH  18  21
ATOM     21  O   LIG    1       -5.628  -9.045 -16.445  0.00  0.00    -0.478 OA
ATOM     22  H   LIG    1       -6.371  -8.646 -16.917  0.00  0.00    +0.394 HD
ENDBRANCH  18  21
BRANCH  19  23
ATOM     23  O   LIG    1       -5.529 -11.690 -15.702  0.00  0.00    -0.477 OA
ATOM     24  H   LIG    1       -6.391 -11.270 -15.579  0.00  0.00    +0.401 HD
ENDBRANCH  19  23
BRANCH  20  25
ATOM     25  C   LIG    1       -4.079 -13.569 -17.188  0.00  0.00    +0.252 C 
ATOM     26  N   LIG    1       -4.038 -14.662 -16.882  0.00  0.00    -0.392 NA
ENDBRANCH  20  25
ENDBRANCH   1  16
TORSDOF 5
ENDMDL
MODEL 4
REMARK VINA RESULT:      -6.2      1.402      2.458
REMARK  Name = CHEMBL167172
REMARK                            x       y       z     vdW  Elec       q    Type
REMARK                         _______ _______ _______ _____ _____    ______ ____
ROOT
ATOM      1  C   LIG    1       -2.883 -10.630 -21.266  0.00  0.00    +0.564 C 
ATOM      2  N   LIG    1       -2.075  -9.552 -21.201  0.00  0.00    -0.719 N 
ATOM      3  H   LIG    1       -1.801  -9.204 -20.339  0.00  0.00    +0.399 HD
ATOM      4  O   LIG    1       -3.227 -11.067 -22.348  0.00  0.00    -0.521 OA
ENDROOT
BRANCH   2   5
ATOM      5  C   LIG    1       -1.613  -8.908 -22.432  0.00  0.00    +0.184 C 
ATOM      6  C   LIG    1       -2.815  -8.599 -23.329  0.00  0.00    +0.024 C 
ATOM      7  C   LIG    1       -2.332  -7.927 -24.615  0.00  0.00    -0.010 C 
ATOM      8  C   LIG    1       -1.374  -8.864 -25.353  0.00  0.00    +0.016 C 
ATOM      9  C   LIG    1       -0.172  -9.172 -24.457  0.00  0.00    -0.005 C 
ATOM     10  C   LIG    1        0.553  -7.871 -24.111  0.00  0.00    +0.016 C 
ATOM     11  C   LIG    1       -0.406  -6.933 -23.374  0.00  0.00    -0.010 C 
ATOM     12  C   LIG    1       -1.607  -6.625 -24.270  0.00  0.00    +0.019 C 
ATOM     13  C   LIG    1       -0.888  -7.606 -22.087  0.00  0.00    +0.025 C 
ATOM     14  C   LIG    1       -0.654  -9.845 -23.170  0.00  0.00    +0.023 C 
ENDBRANCH   2   5
BRANCH   1  16
ATOM     15  C   LIG    1       -3.998 -10.528 -19.048  0.00  0.00    +0.153 A 
ATOM     16  C   LIG    1       -3.348 -11.280 -20.025  0.00  0.00    -0.128 A 
ATOM     17  C   LIG    1       -3.136 -12.648 -19.831  0.00  0.00    +0.075 A 
ATOM     18  C   LIG    1       -3.571 -13.260 -18.671  0.00  0.00    +0.080 A 
ATOM     19  C   LIG    1       -4.222 -12.517 -17.689  0.00  0.00    +0.157 A 
ATOM     20  C   LIG    1       -4.437 -11.144 -17.878  0.00  0.00    -0.043 A 
BRANCH  18  21
ATOM     21  O   LIG    1       -3.362 -14.592 -18.488  0.00  0.00    -0.478 OA
ATOM     22  H   LIG    1       -2.570 -14.799 -17.973  0.00  0.00    +0.394 HD
ENDBRANCH  18  21
BRANCH  19  23
ATOM     23  O   LIG    1       -4.647 -13.121 -16.552  0.00  0.00    -0.477 OA
ATOM     24  H   LIG    1       -4.773 -14.076 -16.638  0.00  0.00    +0.401 HD
ENDBRANCH  19  23
BRANCH  20  25
ATOM     25  C   LIG    1       -5.105 -10.377 -16.870  0.00  0.00    +0.252 C 
ATOM     26  N   LIG    1       -5.635  -9.768 -16.071  0.00  0.00    -0.392 NA
ENDBRANCH  20  25
ENDBRANCH   1  16
TORSDOF 5
ENDMDL
MODEL 5
REMARK VINA RESULT:      -6.1      1.481      2.100
REMARK  Name = CHEMBL167172
REMARK                            x       y       z     vdW  Elec       q    Type
REMARK                         _______ _______ _______ _____ _____    ______ ____
ROOT
ATOM      1  C   LIG    1       -1.924  -9.932 -20.743  0.00  0.00    +0.564 C 
ATOM      2  N   LIG    1       -0.623  -9.715 -20.461  0.00  0.00    -0.719 N 
ATOM      3  H   LIG    1       -0.218 -10.140 -19.690  0.00  0.00    +0.399 HD
ATOM      4  O   LIG    1       -2.434  -9.399 -21.710  0.00  0.00    -0.521 OA
ENDROOT
BRANCH   2   5
ATOM      5  C   LIG    1        0.175  -8.836 -21.319  0.00  0.00    +0.184 C 
ATOM      6  C   LIG    1        1.575  -8.674 -20.721  0.00  0.00    +0.024 C 
ATOM      7  C   LIG    1        2.408  -7.756 -21.616  0.00  0.00    -0.010 C 
ATOM      8  C   LIG    1        1.733  -6.386 -21.712  0.00  0.00    +0.016 C 
ATOM      9  C   LIG    1        0.334  -6.548 -22.310  0.00  0.00    -0.005 C 
ATOM     10  C   LIG    1        0.445  -7.161 -23.707  0.00  0.00    +0.016 C 
ATOM     11  C   LIG    1        1.120  -8.531 -23.612  0.00  0.00    -0.010 C 
ATOM     12  C   LIG    1        2.519  -8.368 -23.014  0.00  0.00    +0.019 C 
ATOM     13  C   LIG    1        0.286  -9.449 -22.716  0.00  0.00    +0.025 C 
ATOM     14  C   LIG    1       -0.500  -7.466 -21.415  0.00  0.00    +0.023 C 
ENDBRANCH   2   5
BRANCH   1  16
ATOM     15  C   LIG    1       -3.488 -10.277 -18.843  0.00  0.00    +0.153 A 
ATOM     16  C   LIG    1       -2.729 -10.818 -19.879  0.00  0.00    -0.128 A 
ATOM     17  C   LIG    1       -2.729 -12.198 -20.100  0.00  0.00    +0.075 A 
ATOM     18  C   LIG    1       -3.481 -13.031 -19.294  0.00  0.00    +0.080 A 
ATOM     19  C   LIG    1       -4.243 -12.499 -18.257  0.00  0.00    +0.157 A 
ATOM     20  C   LIG    1       -4.247 -11.115 -18.029  0.00  0.00    -0.043 A 
BRANCH  18  21
ATOM     21  O   LIG    1       -3.477 -14.374 -19.514  0.00  0.00    -0.478 OA
ATOM     22  H   LIG    1       -3.867 -14.635 -20.359  0.00  0.00    +0.394 HD
ENDBRANCH  18  21
BRANCH  19  23
ATOM     23  O   LIG    1       -4.981 -13.319 -17.467  0.00  0.00    -0.477 OA
ATOM     24  H   LIG    1       -4.631 -14.218 -17.400  0.00  0.00    +0.401 HD
ENDBRANCH  19  23
BRANCH  20  25
ATOM     25  C   LIG    1       -5.029 -10.565 -16.963  0.00  0.00    +0.252 C 
ATOM     26  N   LIG    1       -5.650 -10.129 -16.118  0.00  0.00    -0.392 NA
ENDBRANCH  20  25
ENDBRANCH   1  16
TORSDOF 5
ENDMDL
MODEL 6
REMARK VINA RESULT:      -6.0      5.499      7.722
REMARK  Name = CHEMBL167172
REMARK                            x       y       z     vdW  Elec       q    Type
REMARK                         _______ _______ _______ _____ _____    ______ ____
ROOT
ATOM      1  C   LIG    1       -3.045 -15.542 -19.327  0.00  0.00    +0.564 C 
ATOM      2  N   LIG    1       -3.529 -15.980 -20.507  0.00  0.00    -0.719 N 
ATOM      3  H   LIG    1       -4.087 -15.398 -21.047  0.00  0.00    +0.399 HD
ATOM      4  O   LIG    1       -2.345 -16.270 -18.649  0.00  0.00    -0.521 OA
ENDROOT
BRANCH   2   5
ATOM      5  C   LIG    1       -3.215 -17.332 -20.971  0.00  0.00    +0.184 C 
ATOM      6  C   LIG    1       -3.422 -17.413 -22.486  0.00  0.00    +0.024 C 
ATOM      7  C   LIG    1       -3.094 -18.826 -22.970  0.00  0.00    -0.010 C 
ATOM      8  C   LIG    1       -4.015 -19.832 -22.275  0.00  0.00    +0.016 C 
ATOM      9  C   LIG    1       -3.807 -19.751 -20.762  0.00  0.00    -0.005 C 
ATOM     10  C   LIG    1       -2.351 -20.079 -20.428  0.00  0.00    +0.016 C 
ATOM     11  C   LIG    1       -1.430 -19.074 -21.124  0.00  0.00    -0.010 C 
ATOM     12  C   LIG    1       -1.638 -19.155 -22.637  0.00  0.00    +0.019 C 
ATOM     13  C   LIG    1       -1.758 -17.661 -20.638  0.00  0.00    +0.025 C 
ATOM     14  C   LIG    1       -4.136 -18.337 -20.276  0.00  0.00    +0.023 C 
ENDBRANCH   2   5
BRANCH   1  16
ATOM     15  C   LIG    1       -3.104 -13.083 -19.680  0.00  0.00    +0.153 A 
ATOM     16  C   LIG    1       -3.362 -14.178 -18.859  0.00  0.00    -0.128 A 
ATOM     17  C   LIG    1       -3.920 -13.987 -17.591  0.00  0.00    +0.075 A 
ATOM     18  C   LIG    1       -4.219 -12.713 -17.149  0.00  0.00    +0.080 A 
ATOM     19  C   LIG    1       -3.965 -11.612 -17.964  0.00  0.00    +0.157 A 
ATOM     20  C   LIG    1       -3.405 -11.797 -19.236  0.00  0.00    -0.043 A 
BRANCH  18  21
ATOM     21  O   LIG    1       -4.762 -12.533 -15.915  0.00  0.00    -0.478 OA
ATOM     22  H   LIG    1       -4.114 -12.331 -15.226  0.00  0.00    +0.394 HD
ENDBRANCH  18  21
BRANCH  19  23
ATOM     23  O   LIG    1       -4.260 -10.362 -17.527  0.00  0.00    -0.477 OA
ATOM     24  H   LIG    1       -3.539  -9.933 -17.047  0.00  0.00    +0.401 HD
ENDBRANCH  19  23
BRANCH  20  25
ATOM     25  C   LIG    1       -3.143 -10.667 -20.076  0.00  0.00    +0.252 C 
ATOM     26  N   LIG    1       -2.935  -9.771 -20.743  0.00  0.00    -0.392 NA
ENDBRANCH  20  25
ENDBRANCH   1  16
TORSDOF 5
ENDMDL
MODEL 7
REMARK VINA RESULT:      -5.8      5.994      9.349
REMARK  Name = CHEMBL167172
REMARK                            x       y       z     vdW  Elec       q    Type
REMARK                         _______ _______ _______ _____ _____    ______ ____
ROOT
ATOM      1  C   LIG    1        4.045  -7.669 -20.422  0.00  0.00    +0.564 C 
ATOM      2  N   LIG    1        2.935  -7.036 -20.856  0.00  0.00    -0.719 N 
ATOM      3  H   LIG    1        2.908  -6.067 -20.878  0.00  0.00    +0.399 HD
ATOM      4  O   LIG    1        4.080  -8.884 -20.395  0.00  0.00    -0.521 OA
ENDROOT
BRANCH   2   5
ATOM      5  C   LIG    1        1.773  -7.813 -21.294  0.00  0.00    +0.184 C 
ATOM      6  C   LIG    1        1.497  -8.930 -20.284  0.00  0.00    +0.024 C 
ATOM      7  C   LIG    1        0.284  -9.741 -20.741  0.00  0.00    -0.010 C 
ATOM      8  C   LIG    1        0.567 -10.354 -22.115  0.00  0.00    +0.016 C 
ATOM      9  C   LIG    1        0.843  -9.237 -23.124  0.00  0.00    -0.005 C 
ATOM     10  C   LIG    1       -0.378  -8.320 -23.216  0.00  0.00    +0.016 C 
ATOM     11  C   LIG    1       -0.662  -7.708 -21.843  0.00  0.00    -0.010 C 
ATOM     12  C   LIG    1       -0.938  -8.825 -20.834  0.00  0.00    +0.019 C 
ATOM     13  C   LIG    1        0.552  -6.896 -21.387  0.00  0.00    +0.025 C 
ATOM     14  C   LIG    1        2.057  -8.425 -22.667  0.00  0.00    +0.023 C 
ENDBRANCH   2   5
BRANCH   1  16
ATOM     15  C   LIG    1        5.488  -6.747 -18.622  0.00  0.00    +0.153 A 
ATOM     16  C   LIG    1        5.216  -6.886 -19.982  0.00  0.00    -0.128 A 
ATOM     17  C   LIG    1        6.051  -6.285 -20.928  0.00  0.00    +0.075 A 
ATOM     18  C   LIG    1        7.149  -5.552 -20.521  0.00  0.00    +0.080 A 
ATOM     19  C   LIG    1        7.429  -5.408 -19.164  0.00  0.00    +0.157 A 
ATOM     20  C   LIG    1        6.595  -6.008 -18.209  0.00  0.00    -0.043 A 
BRANCH  18  21
ATOM     21  O   LIG    1        7.958  -4.970 -21.446  0.00  0.00    -0.478 OA
ATOM     22  H   LIG    1        8.697  -5.527 -21.729  0.00  0.00    +0.394 HD
ENDBRANCH  18  21
BRANCH  19  23
ATOM     23  O   LIG    1        8.508  -4.688 -18.767  0.00  0.00    -0.477 OA
ATOM     24  H   LIG    1        8.463  -3.751 -19.001  0.00  0.00    +0.401 HD
ENDBRANCH  19  23
BRANCH  20  25
ATOM     25  C   LIG    1        6.880  -5.861 -16.813  0.00  0.00    +0.252 C 
ATOM     26  N   LIG    1        7.106  -5.744 -15.706  0.00  0.00    -0.392 NA
ENDBRANCH  20  25
ENDBRANCH   1  16
TORSDOF 5
ENDMDL
MODEL 8
REMARK VINA RESULT:      -5.8      5.891      9.137
REMARK  Name = CHEMBL167172
REMARK                            x       y       z     vdW  Elec       q    Type
REMARK                         _______ _______ _______ _____ _____    ______ ____
ROOT
ATOM      1  C   LIG    1        3.838  -7.354 -20.428  0.00  0.00    +0.564 C 
ATOM      2  N   LIG    1        3.309  -8.550 -20.758  0.00  0.00    -0.719 N 
ATOM      3  H   LIG    1        3.830  -9.359 -20.638  0.00  0.00    +0.399 HD
ATOM      4  O   LIG    1        3.185  -6.339 -20.579  0.00  0.00    -0.521 OA
ENDROOT
BRANCH   2   5
ATOM      5  C   LIG    1        1.950  -8.626 -21.297  0.00  0.00    +0.184 C 
ATOM      6  C   LIG    1        1.387 -10.030 -21.066  0.00  0.00    +0.024 C 
ATOM      7  C   LIG    1       -0.033 -10.110 -21.630  0.00  0.00    -0.010 C 
ATOM      8  C   LIG    1       -0.003  -9.813 -23.131  0.00  0.00    +0.016 C 
ATOM      9  C   LIG    1        0.559  -8.409 -23.362  0.00  0.00    -0.005 C 
ATOM     10  C   LIG    1       -0.328  -7.382 -22.656  0.00  0.00    +0.016 C 
ATOM     11  C   LIG    1       -0.358  -7.679 -21.155  0.00  0.00    -0.010 C 
ATOM     12  C   LIG    1       -0.920  -9.083 -20.925  0.00  0.00    +0.019 C 
ATOM     13  C   LIG    1        1.062  -7.599 -20.592  0.00  0.00    +0.025 C 
ATOM     14  C   LIG    1        1.979  -8.330 -22.798  0.00  0.00    +0.023 C 
ENDBRANCH   2   5
BRANCH   1  16
ATOM     15  C   LIG    1        5.425  -6.744 -18.616  0.00  0.00    +0.153 A 
ATOM     16  C   LIG    1        5.208  -7.277 -19.885  0.00  0.00    -0.128 A 
ATOM     17  C   LIG    1        6.288  -7.739 -20.643  0.00  0.00    +0.075 A 
ATOM     18  C   LIG    1        7.572  -7.670 -20.139  0.00  0.00    +0.080 A 
ATOM     19  C   LIG    1        7.798  -7.139 -18.871  0.00  0.00    +0.157 A 
ATOM     20  C   LIG    1        6.719  -6.673 -18.105  0.00  0.00    -0.043 A 
BRANCH  18  21
ATOM     21  O   LIG    1        8.619  -8.122 -20.881  0.00  0.00    -0.478 OA
ATOM     22  H   LIG    1        9.412  -7.573 -20.817  0.00  0.00    +0.394 HD
ENDBRANCH  18  21
BRANCH  19  23
ATOM     23  O   LIG    1        9.059  -7.072 -18.378  0.00  0.00    -0.477 OA
ATOM     24  H   LIG    1        9.126  -7.288 -17.438  0.00  0.00    +0.401 HD
ENDBRANCH  19  23
BRANCH  20  25
ATOM     25  C   LIG    1        6.947  -6.125 -16.802  0.00  0.00    +0.252 C 
ATOM     26  N   LIG    1        7.130  -5.691 -15.768  0.00  0.00    -0.392 NA
ENDBRANCH  20  25
ENDBRANCH   1  16
TORSDOF 5
ENDMDL
MODEL 9
REMARK VINA RESULT:      -5.6      2.323      3.529
REMARK  Name = CHEMBL167172
REMARK                            x       y       z     vdW  Elec       q    Type
REMARK                         _______ _______ _______ _____ _____    ______ ____
ROOT
ATOM      1  C   LIG    1       -1.661  -9.546 -20.181  0.00  0.00    +0.564 C 
ATOM      2  N   LIG    1       -0.947  -9.852 -21.283  0.00  0.00    -0.719 N 
ATOM      3  H   LIG    1       -0.980 -10.750 -21.648  0.00  0.00    +0.399 HD
ATOM      4  O   LIG    1       -1.620  -8.421 -19.723  0.00  0.00    -0.521 OA
ENDROOT
BRANCH   2   5
ATOM      5  C   LIG    1       -0.120  -8.829 -21.927  0.00  0.00    +0.184 C 
ATOM      6  C   LIG    1       -1.005  -7.659 -22.366  0.00  0.00    +0.024 C 
ATOM      7  C   LIG    1       -0.143  -6.591 -23.039  0.00  0.00    -0.010 C 
ATOM      8  C   LIG    1        0.552  -7.192 -24.264  0.00  0.00    +0.016 C 
ATOM      9  C   LIG    1        1.437  -8.360 -23.824  0.00  0.00    -0.005 C 
ATOM     10  C   LIG    1        2.491  -7.859 -22.836  0.00  0.00    +0.016 C 
ATOM     11  C   LIG    1        1.796  -7.257 -21.612  0.00  0.00    -0.010 C 
ATOM     12  C   LIG    1        0.911  -6.089 -22.051  0.00  0.00    +0.019 C 
ATOM     13  C   LIG    1        0.933  -8.326 -20.939  0.00  0.00    +0.025 C 
ATOM     14  C   LIG    1        0.574  -9.430 -23.152  0.00  0.00    +0.023 C 
ENDBRANCH   2   5
BRANCH   1  16
ATOM     15  C   LIG    1       -2.606 -11.843 -20.104  0.00  0.00    +0.153 A 
ATOM     16  C   LIG    1       -2.494 -10.578 -19.532  0.00  0.00    -0.128 A 
ATOM     17  C   LIG    1       -3.171 -10.284 -18.344  0.00  0.00    +0.075 A 
ATOM     18  C   LIG    1       -3.951 -11.246 -17.733  0.00  0.00    +0.080 A 
ATOM     19  C   LIG    1       -4.068 -12.514 -18.297  0.00  0.00    +0.157 A 
ATOM     20  C   LIG    1       -3.392 -12.815 -19.489  0.00  0.00    -0.043 A 
BRANCH  18  21
ATOM     21  O   LIG    1       -4.607 -10.954 -16.577  0.00  0.00    -0.478 OA
ATOM     22  H   LIG    1       -4.161 -10.295 -16.027  0.00  0.00    +0.394 HD
ENDBRANCH  18  21
BRANCH  19  23
ATOM     23  O   LIG    1       -4.835 -13.457 -17.694  0.00  0.00    -0.477 OA
ATOM     24  H   LIG    1       -4.602 -14.364 -17.933  0.00  0.00    +0.401 HD
ENDBRANCH  19  23
BRANCH  20  25
ATOM     25  C   LIG    1       -3.511 -14.118 -20.072  0.00  0.00    +0.252 C 
ATOM     26  N   LIG    1       -3.606 -15.151 -20.534  0.00  0.00    -0.392 NA
ENDBRANCH  20  25
ENDBRANCH   1  16
TORSDOF 5
ENDMDL
