MODEL 1
REMARK VINA RESULT:      -6.4      0.000      0.000
REMARK  Name = CHEMBL1091981
REMARK                            x       y       z     vdW  Elec       q    Type
REMARK                         _______ _______ _______ _____ _____    ______ ____
ROOT
ATOM      1  C   LIG    1        6.037  -7.523 -18.999  0.00  0.00    -0.178 A 
ATOM      2  C   LIG    1        6.667  -6.508 -19.653  0.00  0.00    +0.028 A 
ATOM      3 CL   LIG    1        7.033  -6.656 -21.344  0.00  0.00    +0.005 Cl
ATOM      4  C   LIG    1        7.022  -5.339 -18.956  0.00  0.00    -0.084 A 
ATOM      5  C   LIG    1        7.676  -4.183 -19.459  0.00  0.00    +0.135 A 
ATOM      6  C   LIG    1        7.949  -3.128 -18.645  0.00  0.00    +0.095 A 
ATOM      7  C   LIG    1        7.597  -3.140 -17.291  0.00  0.00    +0.192 A 
ATOM      8  C   LIG    1        6.957  -4.249 -16.766  0.00  0.00    -0.013 A 
ATOM      9  C   LIG    1        6.677  -5.323 -17.583  0.00  0.00    -0.091 A 
ATOM     10  S   LIG    1        5.890  -6.895 -17.336  0.00  0.00    +0.217 S 
ENDROOT
BRANCH   8  11
ATOM     11  N   LIG    1        6.577  -4.283 -15.336  0.00  0.00    +0.022 N 
ATOM     12  O   LIG    1        5.883  -3.408 -14.874  0.00  0.00    -0.109 OA
ATOM     13  O   LIG    1        6.961  -5.186 -14.629  0.00  0.00    -0.124 OA
ENDBRANCH   8  11
BRANCH   1  14
ATOM     14  C   LIG    1        5.587  -8.812 -19.532  0.00  0.00    +0.549 C 
ATOM     15  O   LIG    1        6.401  -9.666 -19.827  0.00  0.00    -0.442 OA
BRANCH  14  16
ATOM     16  O   LIG    1        4.269  -9.050 -19.696  0.00  0.00    -0.343 OA
BRANCH  16  17
ATOM     17  C   LIG    1        3.594  -8.293 -20.703  0.00  0.00    +0.401 C 
ATOM     18  C   LIG    1        4.082  -8.733 -22.084  0.00  0.00    +0.088 C 
BRANCH  17  19
ATOM     19  O   LIG    1        2.186  -8.515 -20.601  0.00  0.00    -0.351 OA
BRANCH  19  20
ATOM     20  C   LIG    1        1.385  -7.463 -20.831  0.00  0.00    +0.458 C 
ATOM     21  O   LIG    1        1.783  -6.343 -20.616  0.00  0.00    -0.490 OA
BRANCH  20  22
ATOM     22  C   LIG    1       -0.011  -7.680 -21.355  0.00  0.00    +0.103 C 
BRANCH  22  24
ATOM     23  C   LIG    1       -1.380  -9.661 -20.686  0.00  0.00    +0.025 C 
ATOM     24  C   LIG    1       -0.883  -8.281 -20.251  0.00  0.00    +0.030 C 
ENDBRANCH  22  24
ENDBRANCH  20  22
ENDBRANCH  19  20
ENDBRANCH  17  19
ENDBRANCH  16  17
ENDBRANCH  14  16
ENDBRANCH   1  14
BRANCH   6  25
ATOM     25  O   LIG    1        8.578  -2.036 -19.159  0.00  0.00    -0.468 OA
ATOM     26  H   LIG    1        8.580  -1.270 -18.570  0.00  0.00    +0.401 HD
ENDBRANCH   6  25
BRANCH   7  27
ATOM     27  O   LIG    1        7.881  -2.073 -16.499  0.00  0.00    -0.467 OA
ATOM     28  H   LIG    1        7.110  -1.534 -16.273  0.00  0.00    +0.412 HD
ENDBRANCH   7  27
TORSDOF 10
ENDMDL
MODEL 2
REMARK VINA RESULT:      -6.3      8.051     10.993
REMARK  Name = CHEMBL1091981
REMARK                            x       y       z     vdW  Elec       q    Type
REMARK                         _______ _______ _______ _____ _____    ______ ____
ROOT
ATOM      1  C   LIG    1       -3.014 -11.751 -21.556  0.00  0.00    -0.178 A 
ATOM      2  C   LIG    1       -3.023 -12.826 -20.719  0.00  0.00    +0.028 A 
ATOM      3 CL   LIG    1       -2.425 -14.361 -21.268  0.00  0.00    +0.005 Cl
ATOM      4  C   LIG    1       -3.518 -12.691 -19.410  0.00  0.00    -0.084 A 
ATOM      5  C   LIG    1       -3.608 -13.686 -18.400  0.00  0.00    +0.135 A 
ATOM      6  C   LIG    1       -4.117 -13.389 -17.174  0.00  0.00    +0.095 A 
ATOM      7  C   LIG    1       -4.567 -12.102 -16.863  0.00  0.00    +0.192 A 
ATOM      8  C   LIG    1       -4.495 -11.106 -17.822  0.00  0.00    -0.013 A 
ATOM      9  C   LIG    1       -3.981 -11.398 -19.067  0.00  0.00    -0.091 A 
ATOM     10  S   LIG    1       -3.705 -10.454 -20.544  0.00  0.00    +0.217 S 
ENDROOT
BRANCH   8  11
ATOM     11  N   LIG    1       -4.966  -9.738 -17.512  0.00  0.00    +0.022 N 
ATOM     12  O   LIG    1       -5.975  -9.578 -16.866  0.00  0.00    -0.109 OA
ATOM     13  O   LIG    1       -4.342  -8.780 -17.908  0.00  0.00    -0.124 OA
ENDBRANCH   8  11
BRANCH   1  14
ATOM     14  C   LIG    1       -2.548 -11.677 -22.943  0.00  0.00    +0.549 C 
ATOM     15  O   LIG    1       -3.351 -11.563 -23.850  0.00  0.00    -0.442 OA
BRANCH  14  16
ATOM     16  O   LIG    1       -1.228 -11.737 -23.215  0.00  0.00    -0.343 OA
BRANCH  16  17
ATOM     17  C   LIG    1       -0.333 -11.394 -22.155  0.00  0.00    +0.401 C 
ATOM     18  C   LIG    1        0.871 -12.339 -22.178  0.00  0.00    +0.088 C 
BRANCH  17  19
ATOM     19  O   LIG    1        0.115 -10.048 -22.327  0.00  0.00    -0.351 OA
BRANCH  19  20
ATOM     20  C   LIG    1       -0.159  -9.183 -21.338  0.00  0.00    +0.458 C 
ATOM     21  O   LIG    1        0.238  -9.401 -20.218  0.00  0.00    -0.490 OA
BRANCH  20  22
ATOM     22  C   LIG    1       -0.965  -7.942 -21.623  0.00  0.00    +0.103 C 
BRANCH  22  24
ATOM     23  C   LIG    1       -2.534  -8.092 -23.562  0.00  0.00    +0.025 C 
ATOM     24  C   LIG    1       -1.103  -7.760 -23.136  0.00  0.00    +0.030 C 
ENDBRANCH  22  24
ENDBRANCH  20  22
ENDBRANCH  19  20
ENDBRANCH  17  19
ENDBRANCH  16  17
ENDBRANCH  14  16
ENDBRANCH   1  14
BRANCH   6  25
ATOM     25  O   LIG    1       -4.190 -14.366 -16.229  0.00  0.00    -0.468 OA
ATOM     26  H   LIG    1       -4.783 -15.093 -16.460  0.00  0.00    +0.401 HD
ENDBRANCH   6  25
BRANCH   7  27
ATOM     27  O   LIG    1       -5.071 -11.831 -15.629  0.00  0.00    -0.467 OA
ATOM     28  H   LIG    1       -4.974 -12.555 -14.997  0.00  0.00    +0.412 HD
ENDBRANCH   7  27
TORSDOF 10
ENDMDL
MODEL 3
REMARK VINA RESULT:      -6.0     10.302     11.839
REMARK  Name = CHEMBL1091981
REMARK                            x       y       z     vdW  Elec       q    Type
REMARK                         _______ _______ _______ _____ _____    ______ ____
ROOT
ATOM      1  C   LIG    1       -2.921 -11.464 -21.378  0.00  0.00    -0.178 A 
ATOM      2  C   LIG    1       -2.922 -12.578 -20.592  0.00  0.00    +0.028 A 
ATOM      3 CL   LIG    1       -2.247 -14.062 -21.185  0.00  0.00    +0.005 Cl
ATOM      4  C   LIG    1       -3.472 -12.521 -19.298  0.00  0.00    -0.084 A 
ATOM      5  C   LIG    1       -3.564 -13.565 -18.339  0.00  0.00    +0.135 A 
ATOM      6  C   LIG    1       -4.129 -13.344 -17.122  0.00  0.00    +0.095 A 
ATOM      7  C   LIG    1       -4.639 -12.089 -16.771  0.00  0.00    +0.192 A 
ATOM      8  C   LIG    1       -4.567 -11.048 -17.680  0.00  0.00    -0.013 A 
ATOM      9  C   LIG    1       -3.995 -11.263 -18.916  0.00  0.00    -0.091 A 
ATOM     10  S   LIG    1       -3.698 -10.241 -20.336  0.00  0.00    +0.217 S 
ENDROOT
BRANCH   8  11
ATOM     11  N   LIG    1       -5.101  -9.713 -17.328  0.00  0.00    +0.022 N 
ATOM     12  O   LIG    1       -4.498  -8.717 -17.651  0.00  0.00    -0.109 OA
ATOM     13  O   LIG    1       -6.140  -9.620 -16.717  0.00  0.00    -0.124 OA
ENDBRANCH   8  11
BRANCH   1  14
ATOM     14  C   LIG    1       -2.406 -11.310 -22.740  0.00  0.00    +0.549 C 
ATOM     15  O   LIG    1       -1.219 -11.113 -22.923  0.00  0.00    -0.442 OA
BRANCH  14  16
ATOM     16  O   LIG    1       -3.247 -11.384 -23.792  0.00  0.00    -0.343 OA
BRANCH  16  17
ATOM     17  C   LIG    1       -4.468 -10.646 -23.699  0.00  0.00    +0.401 C 
ATOM     18  C   LIG    1       -4.326  -9.328 -24.464  0.00  0.00    +0.088 C 
BRANCH  17  19
ATOM     19  O   LIG    1       -5.533 -11.413 -24.263  0.00  0.00    -0.351 OA
BRANCH  19  20
ATOM     20  C   LIG    1       -6.481 -11.852 -23.420  0.00  0.00    +0.458 C 
ATOM     21  O   LIG    1       -7.607 -11.422 -23.500  0.00  0.00    -0.490 OA
BRANCH  20  22
ATOM     22  C   LIG    1       -6.139 -12.879 -22.372  0.00  0.00    +0.103 C 
BRANCH  22  24
ATOM     23  C   LIG    1       -6.473 -14.831 -23.896  0.00  0.00    +0.025 C 
ATOM     24  C   LIG    1       -5.458 -14.078 -23.034  0.00  0.00    +0.030 C 
ENDBRANCH  22  24
ENDBRANCH  20  22
ENDBRANCH  19  20
ENDBRANCH  17  19
ENDBRANCH  16  17
ENDBRANCH  14  16
ENDBRANCH   1  14
BRANCH   6  25
ATOM     25  O   LIG    1       -4.202 -14.366 -16.226  0.00  0.00    -0.468 OA
ATOM     26  H   LIG    1       -3.477 -15.001 -16.295  0.00  0.00    +0.401 HD
ENDBRANCH   6  25
BRANCH   7  27
ATOM     27  O   LIG    1       -5.200 -11.894 -15.548  0.00  0.00    -0.467 OA
ATOM     28  H   LIG    1       -6.123 -11.607 -15.580  0.00  0.00    +0.412 HD
ENDBRANCH   7  27
TORSDOF 10
ENDMDL
MODEL 4
REMARK VINA RESULT:      -5.8     10.625     13.094
REMARK  Name = CHEMBL1091981
REMARK                            x       y       z     vdW  Elec       q    Type
REMARK                         _______ _______ _______ _____ _____    ______ ____
ROOT
ATOM      1  C   LIG    1       -2.513 -15.016 -21.062  0.00  0.00    -0.178 A 
ATOM      2  C   LIG    1       -2.974 -15.124 -19.784  0.00  0.00    +0.028 A 
ATOM      3 CL   LIG    1       -3.080 -16.682 -19.025  0.00  0.00    +0.005 Cl
ATOM      4  C   LIG    1       -3.365 -13.970 -19.081  0.00  0.00    -0.084 A 
ATOM      5  C   LIG    1       -3.866 -13.880 -17.755  0.00  0.00    +0.135 A 
ATOM      6  C   LIG    1       -4.202 -12.676 -17.218  0.00  0.00    +0.095 A 
ATOM      7  C   LIG    1       -4.066 -11.489 -17.946  0.00  0.00    +0.192 A 
ATOM      8  C   LIG    1       -3.581 -11.538 -19.241  0.00  0.00    -0.013 A 
ATOM      9  C   LIG    1       -3.239 -12.754 -19.794  0.00  0.00    -0.091 A 
ATOM     10  S   LIG    1       -2.591 -13.260 -21.367  0.00  0.00    +0.217 S 
ENDROOT
BRANCH   8  11
ATOM     11  N   LIG    1       -3.431 -10.294 -20.029  0.00  0.00    +0.022 N 
ATOM     12  O   LIG    1       -4.045 -10.153 -21.060  0.00  0.00    -0.109 OA
ATOM     13  O   LIG    1       -2.693  -9.418 -19.640  0.00  0.00    -0.124 OA
ENDBRANCH   8  11
BRANCH   1  14
ATOM     14  C   LIG    1       -2.060 -16.081 -21.961  0.00  0.00    +0.549 C 
ATOM     15  O   LIG    1       -0.998 -16.638 -21.759  0.00  0.00    -0.442 OA
BRANCH  14  16
ATOM     16  O   LIG    1       -2.821 -16.442 -23.015  0.00  0.00    -0.343 OA
BRANCH  16  17
ATOM     17  C   LIG    1       -4.128 -16.945 -22.728  0.00  0.00    +0.401 C 
ATOM     18  C   LIG    1       -5.176 -16.049 -23.391  0.00  0.00    +0.088 C 
BRANCH  17  19
ATOM     19  O   LIG    1       -4.249 -18.276 -23.235  0.00  0.00    -0.351 OA
BRANCH  19  20
ATOM     20  C   LIG    1       -4.969 -19.142 -22.507  0.00  0.00    +0.458 C 
ATOM     21  O   LIG    1       -5.436 -20.127 -23.028  0.00  0.00    -0.490 OA
BRANCH  20  22
ATOM     22  C   LIG    1       -5.199 -18.886 -21.040  0.00  0.00    +0.103 C 
BRANCH  22  24
ATOM     23  C   LIG    1       -3.998 -20.776 -19.931  0.00  0.00    +0.025 C 
ATOM     24  C   LIG    1       -5.372 -20.219 -20.310  0.00  0.00    +0.030 C 
ENDBRANCH  22  24
ENDBRANCH  20  22
ENDBRANCH  19  20
ENDBRANCH  17  19
ENDBRANCH  16  17
ENDBRANCH  14  16
ENDBRANCH   1  14
BRANCH   6  25
ATOM     25  O   LIG    1       -4.680 -12.625 -15.945  0.00  0.00    -0.468 OA
ATOM     26  H   LIG    1       -5.345 -13.297 -15.748  0.00  0.00    +0.401 HD
ENDBRANCH   6  25
BRANCH   7  27
ATOM     27  O   LIG    1       -4.409 -10.298 -17.387  0.00  0.00    -0.467 OA
ATOM     28  H   LIG    1       -3.750  -9.601 -17.511  0.00  0.00    +0.412 HD
ENDBRANCH   7  27
TORSDOF 10
ENDMDL
MODEL 5
REMARK VINA RESULT:      -5.7     10.534     12.955
REMARK  Name = CHEMBL1091981
REMARK                            x       y       z     vdW  Elec       q    Type
REMARK                         _______ _______ _______ _____ _____    ______ ____
ROOT
ATOM      1  C   LIG    1       -2.592 -14.955 -20.827  0.00  0.00    -0.178 A 
ATOM      2  C   LIG    1       -3.106 -15.002 -19.566  0.00  0.00    +0.028 A 
ATOM      3 CL   LIG    1       -3.308 -16.528 -18.764  0.00  0.00    +0.005 Cl
ATOM      4  C   LIG    1       -3.474 -13.810 -18.916  0.00  0.00    -0.084 A 
ATOM      5  C   LIG    1       -4.021 -13.655 -17.614  0.00  0.00    +0.135 A 
ATOM      6  C   LIG    1       -4.324 -12.422 -17.129  0.00  0.00    +0.095 A 
ATOM      7  C   LIG    1       -4.110 -11.266 -17.887  0.00  0.00    +0.192 A 
ATOM      8  C   LIG    1       -3.578 -11.378 -19.160  0.00  0.00    -0.013 A 
ATOM      9  C   LIG    1       -3.268 -12.624 -19.660  0.00  0.00    -0.091 A 
ATOM     10  S   LIG    1       -2.582 -13.208 -21.189  0.00  0.00    +0.217 S 
ENDROOT
BRANCH   8  11
ATOM     11  N   LIG    1       -3.344 -10.167 -19.979  0.00  0.00    +0.022 N 
ATOM     12  O   LIG    1       -2.553  -9.331 -19.610  0.00  0.00    -0.109 OA
ATOM     13  O   LIG    1       -3.945 -10.015 -21.017  0.00  0.00    -0.124 OA
ENDBRANCH   8  11
BRANCH   1  14
ATOM     14  C   LIG    1       -2.151 -16.067 -21.674  0.00  0.00    +0.549 C 
ATOM     15  O   LIG    1       -2.683 -16.259 -22.751  0.00  0.00    -0.442 OA
BRANCH  14  16
ATOM     16  O   LIG    1       -1.155 -16.876 -21.259  0.00  0.00    -0.343 OA
BRANCH  16  17
ATOM     17  C   LIG    1       -1.296 -18.272 -21.536  0.00  0.00    +0.401 C 
ATOM     18  C   LIG    1        0.089 -18.914 -21.638  0.00  0.00    +0.088 C 
BRANCH  17  19
ATOM     19  O   LIG    1       -2.034 -18.894 -20.483  0.00  0.00    -0.351 OA
BRANCH  19  20
ATOM     20  C   LIG    1       -3.098 -19.631 -20.838  0.00  0.00    +0.458 C 
ATOM     21  O   LIG    1       -2.940 -20.730 -21.315  0.00  0.00    -0.490 OA
BRANCH  20  22
ATOM     22  C   LIG    1       -4.490 -19.088 -20.642  0.00  0.00    +0.103 C 
BRANCH  22  24
ATOM     23  C   LIG    1       -6.435 -20.386 -21.524  0.00  0.00    +0.025 C 
ATOM     24  C   LIG    1       -5.453 -20.243 -20.359  0.00  0.00    +0.030 C 
ENDBRANCH  22  24
ENDBRANCH  20  22
ENDBRANCH  19  20
ENDBRANCH  17  19
ENDBRANCH  16  17
ENDBRANCH  14  16
ENDBRANCH   1  14
BRANCH   6  25
ATOM     25  O   LIG    1       -4.848 -12.309 -15.878  0.00  0.00    -0.468 OA
ATOM     26  H   LIG    1       -4.970 -13.154 -15.425  0.00  0.00    +0.401 HD
ENDBRANCH   6  25
BRANCH   7  27
ATOM     27  O   LIG    1       -4.422 -10.044 -17.379  0.00  0.00    -0.467 OA
ATOM     28  H   LIG    1       -5.132 -10.061 -16.723  0.00  0.00    +0.412 HD
ENDBRANCH   7  27
TORSDOF 10
ENDMDL
MODEL 6
REMARK VINA RESULT:      -5.6      6.733      9.033
REMARK  Name = CHEMBL1091981
REMARK                            x       y       z     vdW  Elec       q    Type
REMARK                         _______ _______ _______ _____ _____    ______ ____
ROOT
ATOM      1  C   LIG    1       -1.763  -9.748 -21.706  0.00  0.00    -0.178 A 
ATOM      2  C   LIG    1       -2.217  -8.954 -22.715  0.00  0.00    +0.028 A 
ATOM      3 CL   LIG    1       -3.691  -9.352 -23.541  0.00  0.00    +0.005 Cl
ATOM      4  C   LIG    1       -1.488  -7.810 -23.088  0.00  0.00    -0.084 A 
ATOM      5  C   LIG    1       -1.796  -6.867 -24.105  0.00  0.00    +0.135 A 
ATOM      6  C   LIG    1       -0.979  -5.805 -24.340  0.00  0.00    +0.095 A 
ATOM      7  C   LIG    1        0.187  -5.602 -23.595  0.00  0.00    +0.192 A 
ATOM      8  C   LIG    1        0.520  -6.500 -22.596  0.00  0.00    -0.013 A 
ATOM      9  C   LIG    1       -0.302  -7.579 -22.350  0.00  0.00    -0.091 A 
ATOM     10  S   LIG    1       -0.263  -8.928 -21.197  0.00  0.00    +0.217 S 
ENDROOT
BRANCH   8  11
ATOM     11  N   LIG    1        1.750  -6.304 -21.797  0.00  0.00    +0.022 N 
ATOM     12  O   LIG    1        2.830  -6.311 -22.338  0.00  0.00    -0.109 OA
ATOM     13  O   LIG    1        1.673  -6.137 -20.602  0.00  0.00    -0.124 OA
ENDBRANCH   8  11
BRANCH   1  14
ATOM     14  C   LIG    1       -2.363 -10.972 -21.168  0.00  0.00    +0.549 C 
ATOM     15  O   LIG    1       -1.782 -12.035 -21.281  0.00  0.00    -0.442 OA
BRANCH  14  16
ATOM     16  O   LIG    1       -3.560 -10.920 -20.548  0.00  0.00    -0.343 OA
BRANCH  16  17
ATOM     17  C   LIG    1       -3.566 -11.123 -19.133  0.00  0.00    +0.401 C 
ATOM     18  C   LIG    1       -4.173  -9.898 -18.445  0.00  0.00    +0.088 C 
BRANCH  17  19
ATOM     19  O   LIG    1       -4.345 -12.280 -18.822  0.00  0.00    -0.351 OA
BRANCH  19  20
ATOM     20  C   LIG    1       -3.908 -13.057 -17.820  0.00  0.00    +0.458 C 
ATOM     21  O   LIG    1       -3.814 -12.608 -16.702  0.00  0.00    -0.490 OA
BRANCH  20  22
ATOM     22  C   LIG    1       -3.532 -14.492 -18.088  0.00  0.00    +0.103 C 
BRANCH  22  24
ATOM     23  C   LIG    1       -1.896 -15.454 -19.715  0.00  0.00    +0.025 C 
ATOM     24  C   LIG    1       -3.199 -14.663 -19.571  0.00  0.00    +0.030 C 
ENDBRANCH  22  24
ENDBRANCH  20  22
ENDBRANCH  19  20
ENDBRANCH  17  19
ENDBRANCH  16  17
ENDBRANCH  14  16
ENDBRANCH   1  14
BRANCH   6  25
ATOM     25  O   LIG    1       -1.304  -4.921 -25.323  0.00  0.00    -0.468 OA
ATOM     26  H   LIG    1       -1.196  -5.271 -26.217  0.00  0.00    +0.401 HD
ENDBRANCH   6  25
BRANCH   7  27
ATOM     27  O   LIG    1        0.987  -4.533 -23.851  0.00  0.00    -0.467 OA
ATOM     28  H   LIG    1        1.092  -4.337 -24.792  0.00  0.00    +0.412 HD
ENDBRANCH   7  27
TORSDOF 10
ENDMDL
MODEL 7
REMARK VINA RESULT:      -5.6      2.181      3.191
REMARK  Name = CHEMBL1091981
REMARK                            x       y       z     vdW  Elec       q    Type
REMARK                         _______ _______ _______ _____ _____    ______ ____
ROOT
ATOM      1  C   LIG    1        5.508  -7.632 -21.294  0.00  0.00    -0.178 A 
ATOM      2  C   LIG    1        5.272  -7.739 -19.957  0.00  0.00    +0.028 A 
ATOM      3 CL   LIG    1        4.267  -9.016 -19.349  0.00  0.00    +0.005 Cl
ATOM      4  C   LIG    1        5.845  -6.810 -19.068  0.00  0.00    -0.084 A 
ATOM      5  C   LIG    1        5.718  -6.756 -17.655  0.00  0.00    +0.135 A 
ATOM      6  C   LIG    1        6.342  -5.785 -16.936  0.00  0.00    +0.095 A 
ATOM      7  C   LIG    1        7.128  -4.809 -17.557  0.00  0.00    +0.192 A 
ATOM      8  C   LIG    1        7.275  -4.829 -18.933  0.00  0.00    -0.013 A 
ATOM      9  C   LIG    1        6.646  -5.810 -19.669  0.00  0.00    -0.091 A 
ATOM     10  S   LIG    1        6.572  -6.204 -21.398  0.00  0.00    +0.217 S 
ENDROOT
BRANCH   8  11
ATOM     11  N   LIG    1        8.102  -3.805 -19.609  0.00  0.00    +0.022 N 
ATOM     12  O   LIG    1        7.713  -2.663 -19.678  0.00  0.00    -0.109 OA
ATOM     13  O   LIG    1        9.167  -4.112 -20.094  0.00  0.00    -0.124 OA
ENDBRANCH   8  11
BRANCH   1  14
ATOM     14  C   LIG    1        5.013  -8.484 -22.379  0.00  0.00    +0.549 C 
ATOM     15  O   LIG    1        5.341  -9.654 -22.431  0.00  0.00    -0.442 OA
BRANCH  14  16
ATOM     16  O   LIG    1        4.196  -7.969 -23.320  0.00  0.00    -0.343 OA
BRANCH  16  17
ATOM     17  C   LIG    1        3.323  -6.913 -22.913  0.00  0.00    +0.401 C 
ATOM     18  C   LIG    1        3.144  -5.926 -24.069  0.00  0.00    +0.088 C 
BRANCH  17  19
ATOM     19  O   LIG    1        2.053  -7.457 -22.549  0.00  0.00    -0.351 OA
BRANCH  19  20
ATOM     20  C   LIG    1        1.678  -7.325 -21.268  0.00  0.00    +0.458 C 
ATOM     21  O   LIG    1        2.028  -6.360 -20.632  0.00  0.00    -0.490 OA
BRANCH  20  22
ATOM     22  C   LIG    1        0.822  -8.383 -20.621  0.00  0.00    +0.103 C 
BRANCH  22  24
ATOM     23  C   LIG    1       -1.508  -8.895 -19.874  0.00  0.00    +0.025 C 
ATOM     24  C   LIG    1       -0.655  -8.025 -20.800  0.00  0.00    +0.030 C 
ENDBRANCH  22  24
ENDBRANCH  20  22
ENDBRANCH  19  20
ENDBRANCH  17  19
ENDBRANCH  16  17
ENDBRANCH  14  16
ENDBRANCH   1  14
BRANCH   6  25
ATOM     25  O   LIG    1        6.198  -5.762 -15.583  0.00  0.00    -0.468 OA
ATOM     26  H   LIG    1        6.871  -6.267 -15.107  0.00  0.00    +0.401 HD
ENDBRANCH   6  25
BRANCH   7  27
ATOM     27  O   LIG    1        7.741  -3.848 -16.816  0.00  0.00    -0.467 OA
ATOM     28  H   LIG    1        8.604  -4.111 -16.467  0.00  0.00    +0.412 HD
ENDBRANCH   7  27
TORSDOF 10
ENDMDL
MODEL 8
REMARK VINA RESULT:      -5.5      1.942      2.905
REMARK  Name = CHEMBL1091981
REMARK                            x       y       z     vdW  Elec       q    Type
REMARK                         _______ _______ _______ _____ _____    ______ ____
ROOT
ATOM      1  C   LIG    1        6.742  -6.999 -20.505  0.00  0.00    -0.178 A 
ATOM      2  C   LIG    1        6.457  -7.197 -19.187  0.00  0.00    +0.028 A 
ATOM      3 CL   LIG    1        5.827  -8.724 -18.652  0.00  0.00    +0.005 Cl
ATOM      4  C   LIG    1        6.674  -6.162 -18.260  0.00  0.00    -0.084 A 
ATOM      5  C   LIG    1        6.441  -6.176 -16.859  0.00  0.00    +0.135 A 
ATOM      6  C   LIG    1        6.706  -5.081 -16.098  0.00  0.00    +0.095 A 
ATOM      7  C   LIG    1        7.215  -3.906 -16.661  0.00  0.00    +0.192 A 
ATOM      8  C   LIG    1        7.455  -3.855 -18.023  0.00  0.00    -0.013 A 
ATOM      9  C   LIG    1        7.189  -4.960 -18.802  0.00  0.00    -0.091 A 
ATOM     10  S   LIG    1        7.350  -5.322 -20.533  0.00  0.00    +0.217 S 
ENDROOT
BRANCH   8  11
ATOM     11  N   LIG    1        7.993  -2.621 -18.639  0.00  0.00    +0.022 N 
ATOM     12  O   LIG    1        7.285  -1.938 -19.341  0.00  0.00    -0.109 OA
ATOM     13  O   LIG    1        9.141  -2.297 -18.440  0.00  0.00    -0.124 OA
ENDBRANCH   8  11
BRANCH   1  14
ATOM     14  C   LIG    1        6.590  -7.935 -21.622  0.00  0.00    +0.549 C 
ATOM     15  O   LIG    1        7.147  -9.016 -21.590  0.00  0.00    -0.442 OA
BRANCH  14  16
ATOM     16  O   LIG    1        5.834  -7.596 -22.686  0.00  0.00    -0.343 OA
BRANCH  16  17
ATOM     17  C   LIG    1        4.600  -6.926 -22.418  0.00  0.00    +0.401 C 
ATOM     18  C   LIG    1        4.127  -6.205 -23.682  0.00  0.00    +0.088 C 
BRANCH  17  19
ATOM     19  O   LIG    1        3.616  -7.883 -22.018  0.00  0.00    -0.351 OA
BRANCH  19  20
ATOM     20  C   LIG    1        2.839  -7.556 -20.974  0.00  0.00    +0.458 C 
ATOM     21  O   LIG    1        3.125  -6.610 -20.280  0.00  0.00    -0.490 OA
BRANCH  20  22
ATOM     22  C   LIG    1        1.609  -8.371 -20.667  0.00  0.00    +0.103 C 
BRANCH  22  24
ATOM     23  C   LIG    1       -0.882  -8.275 -20.495  0.00  0.00    +0.025 C 
ATOM     24  C   LIG    1        0.360  -7.574 -21.050  0.00  0.00    +0.030 C 
ENDBRANCH  22  24
ENDBRANCH  20  22
ENDBRANCH  19  20
ENDBRANCH  17  19
ENDBRANCH  16  17
ENDBRANCH  14  16
ENDBRANCH   1  14
BRANCH   6  25
ATOM     25  O   LIG    1        6.470  -5.129 -14.758  0.00  0.00    -0.468 OA
ATOM     26  H   LIG    1        6.107  -4.311 -14.393  0.00  0.00    +0.401 HD
ENDBRANCH   6  25
BRANCH   7  27
ATOM     27  O   LIG    1        7.471  -2.825 -15.878  0.00  0.00    -0.467 OA
ATOM     28  H   LIG    1        7.907  -2.097 -16.342  0.00  0.00    +0.412 HD
ENDBRANCH   7  27
TORSDOF 10
ENDMDL
MODEL 9
REMARK VINA RESULT:      -5.4     15.004     17.114
REMARK  Name = CHEMBL1091981
REMARK                            x       y       z     vdW  Elec       q    Type
REMARK                         _______ _______ _______ _____ _____    ______ ____
ROOT
ATOM      1  C   LIG    1       -9.659  -7.195 -25.886  0.00  0.00    -0.178 A 
ATOM      2  C   LIG    1       -9.973  -7.290 -24.564  0.00  0.00    +0.028 A 
ATOM      3 CL   LIG    1      -10.747  -8.718 -23.953  0.00  0.00    +0.005 Cl
ATOM      4  C   LIG    1       -9.669  -6.227 -23.694  0.00  0.00    -0.084 A 
ATOM      5  C   LIG    1       -9.915  -6.139 -22.298  0.00  0.00    +0.135 A 
ATOM      6  C   LIG    1       -9.556  -5.031 -21.596  0.00  0.00    +0.095 A 
ATOM      7  C   LIG    1       -8.936  -3.942 -22.218  0.00  0.00    +0.192 A 
ATOM      8  C   LIG    1       -8.680  -3.992 -23.577  0.00  0.00    -0.013 A 
ATOM      9  C   LIG    1       -9.040  -5.111 -24.296  0.00  0.00    -0.091 A 
ATOM     10  S   LIG    1       -8.898  -5.585 -26.001  0.00  0.00    +0.217 S 
ENDROOT
BRANCH   8  11
ATOM     11  N   LIG    1       -8.025  -2.850 -24.254  0.00  0.00    +0.022 N 
ATOM     12  O   LIG    1       -8.694  -1.956 -24.716  0.00  0.00    -0.109 OA
ATOM     13  O   LIG    1       -6.819  -2.813 -24.346  0.00  0.00    -0.124 OA
ENDBRANCH   8  11
BRANCH   1  14
ATOM     14  C   LIG    1       -9.887  -8.176 -26.951  0.00  0.00    +0.549 C 
ATOM     15  O   LIG    1       -8.941  -8.700 -27.507  0.00  0.00    -0.442 OA
BRANCH  14  16
ATOM     16  O   LIG    1      -11.146  -8.496 -27.314  0.00  0.00    -0.343 OA
BRANCH  16  17
ATOM     17  C   LIG    1      -12.070  -7.416 -27.472  0.00  0.00    +0.401 C 
ATOM     18  C   LIG    1      -12.736  -7.512 -28.846  0.00  0.00    +0.088 C 
BRANCH  17  19
ATOM     19  O   LIG    1      -13.068  -7.490 -26.451  0.00  0.00    -0.351 OA
BRANCH  19  20
ATOM     20  C   LIG    1      -13.432  -6.337 -25.871  0.00  0.00    +0.458 C 
ATOM     21  O   LIG    1      -12.628  -5.444 -25.743  0.00  0.00    -0.490 OA
BRANCH  20  22
ATOM     22  C   LIG    1      -14.843  -6.155 -25.375  0.00  0.00    +0.103 C 
BRANCH  22  24
ATOM     23  C   LIG    1      -15.737  -5.392 -27.581  0.00  0.00    +0.025 C 
ATOM     24  C   LIG    1      -15.825  -6.475 -26.504  0.00  0.00    +0.030 C 
ENDBRANCH  22  24
ENDBRANCH  20  22
ENDBRANCH  19  20
ENDBRANCH  17  19
ENDBRANCH  16  17
ENDBRANCH  14  16
ENDBRANCH   1  14
BRANCH   6  25
ATOM     25  O   LIG    1       -9.807  -4.980 -20.259  0.00  0.00    -0.468 OA
ATOM     26  H   LIG    1      -10.130  -4.122 -19.952  0.00  0.00    +0.401 HD
ENDBRANCH   6  25
BRANCH   7  27
ATOM     27  O   LIG    1       -8.587  -2.846 -21.493  0.00  0.00    -0.467 OA
ATOM     28  H   LIG    1       -8.235  -2.119 -22.025  0.00  0.00    +0.412 HD
ENDBRANCH   7  27
TORSDOF 10
ENDMDL
