MODEL 1
REMARK VINA RESULT:      -6.4      0.000      0.000
REMARK  Name = CHEMBL355736
REMARK                            x       y       z     vdW  Elec       q    Type
REMARK                         _______ _______ _______ _____ _____    ______ ____
ROOT
ATOM      1  C   LIG    1       -5.301  -2.091 -19.892  0.00  0.00    +0.151 A 
ATOM      2  C   LIG    1       -6.562  -2.505 -19.462  0.00  0.00    -0.198 A 
ATOM      3  C   LIG    1       -7.333  -1.670 -18.640  0.00  0.00    +0.109 A 
ATOM      4  C   LIG    1       -6.848  -0.437 -18.254  0.00  0.00    +0.057 A 
ATOM      5  C   LIG    1       -5.590  -0.013 -18.678  0.00  0.00    +0.168 A 
ATOM      6  C   LIG    1       -4.810  -0.844 -19.502  0.00  0.00    -0.219 A 
ENDROOT
BRANCH   2   7
ATOM      7  C   LIG    1       -7.082  -3.817 -19.870  0.00  0.00    +0.500 C 
ATOM      8  O   LIG    1       -6.891  -4.790 -19.172  0.00  0.00    -0.452 OA
ENDBRANCH   2   7
BRANCH   4   9
ATOM      9  O   LIG    1       -7.602   0.367 -17.457  0.00  0.00    -0.480 OA
ATOM     10  H   LIG    1       -8.552   0.187 -17.502  0.00  0.00    +0.392 HD
ENDBRANCH   4   9
BRANCH   5  11
ATOM     11  O   LIG    1       -5.119   1.198 -18.297  0.00  0.00    -0.480 OA
ATOM     12  H   LIG    1       -4.363   1.508 -18.815  0.00  0.00    +0.402 HD
ENDBRANCH   5  11
BRANCH   6  13
ATOM     13  C   LIG    1       -3.484  -0.401 -19.951  0.00  0.00    +0.503 C 
ATOM     14  O   LIG    1       -3.378   0.588 -20.645  0.00  0.00    -0.452 OA
ENDBRANCH   6  13
TORSDOF 4
ENDMDL
MODEL 2
REMARK VINA RESULT:      -6.1      1.305      3.957
REMARK  Name = CHEMBL355736
REMARK                            x       y       z     vdW  Elec       q    Type
REMARK                         _______ _______ _______ _____ _____    ______ ____
ROOT
ATOM      1  C   LIG    1       -4.664  -0.964 -19.947  0.00  0.00    +0.151 A 
ATOM      2  C   LIG    1       -4.302   0.376 -19.810  0.00  0.00    -0.198 A 
ATOM      3  C   LIG    1       -5.130   1.258 -19.101  0.00  0.00    +0.109 A 
ATOM      4  C   LIG    1       -6.305   0.805 -18.536  0.00  0.00    +0.057 A 
ATOM      5  C   LIG    1       -6.676  -0.532 -18.667  0.00  0.00    +0.168 A 
ATOM      6  C   LIG    1       -5.851  -1.424 -19.377  0.00  0.00    -0.219 A 
ENDROOT
BRANCH   2   7
ATOM      7  C   LIG    1       -3.052   0.864 -20.409  0.00  0.00    +0.500 C 
ATOM      8  O   LIG    1       -3.067   1.833 -21.139  0.00  0.00    -0.452 OA
ENDBRANCH   2   7
BRANCH   4   9
ATOM      9  O   LIG    1       -7.103   1.666 -17.849  0.00  0.00    -0.480 OA
ATOM     10  H   LIG    1       -6.838   2.593 -17.924  0.00  0.00    +0.392 HD
ENDBRANCH   4   9
BRANCH   5  11
ATOM     11  O   LIG    1       -7.830  -0.973 -18.111  0.00  0.00    -0.480 OA
ATOM     12  H   LIG    1       -8.490  -0.280 -17.971  0.00  0.00    +0.402 HD
ENDBRANCH   5  11
BRANCH   6  13
ATOM     13  C   LIG    1       -6.239  -2.833 -19.517  0.00  0.00    +0.503 C 
ATOM     14  O   LIG    1       -6.676  -3.239 -20.573  0.00  0.00    -0.452 OA
ENDBRANCH   6  13
TORSDOF 4
ENDMDL
MODEL 3
REMARK VINA RESULT:      -5.9      1.108      4.091
REMARK  Name = CHEMBL355736
REMARK                            x       y       z     vdW  Elec       q    Type
REMARK                         _______ _______ _______ _____ _____    ______ ____
ROOT
ATOM      1  C   LIG    1       -5.194   0.118 -18.906  0.00  0.00    +0.151 A 
ATOM      2  C   LIG    1       -4.491  -0.694 -19.796  0.00  0.00    -0.198 A 
ATOM      3  C   LIG    1       -5.024  -1.930 -20.190  0.00  0.00    +0.109 A 
ATOM      4  C   LIG    1       -6.244  -2.348 -19.699  0.00  0.00    +0.057 A 
ATOM      5  C   LIG    1       -6.955  -1.545 -18.809  0.00  0.00    +0.168 A 
ATOM      6  C   LIG    1       -6.428  -0.303 -18.409  0.00  0.00    -0.219 A 
ENDROOT
BRANCH   2   7
ATOM      7  C   LIG    1       -3.191  -0.254 -20.322  0.00  0.00    +0.500 C 
ATOM      8  O   LIG    1       -2.946   0.930 -20.422  0.00  0.00    -0.452 OA
ENDBRANCH   2   7
BRANCH   4   9
ATOM      9  O   LIG    1       -6.755  -3.547 -20.086  0.00  0.00    -0.480 OA
ATOM     10  H   LIG    1       -7.585  -3.782 -19.649  0.00  0.00    +0.392 HD
ENDBRANCH   4   9
BRANCH   5  11
ATOM     11  O   LIG    1       -8.152  -1.958 -18.330  0.00  0.00    -0.480 OA
ATOM     12  H   LIG    1       -8.518  -1.389 -17.639  0.00  0.00    +0.402 HD
ENDBRANCH   5  11
BRANCH   6  13
ATOM     13  C   LIG    1       -7.173   0.545 -17.471  0.00  0.00    +0.503 C 
ATOM     14  O   LIG    1       -6.856   1.706 -17.319  0.00  0.00    -0.452 OA
ENDBRANCH   6  13
TORSDOF 4
ENDMDL
MODEL 4
REMARK VINA RESULT:      -5.6      8.643     10.713
REMARK  Name = CHEMBL355736
REMARK                            x       y       z     vdW  Elec       q    Type
REMARK                         _______ _______ _______ _____ _____    ______ ____
ROOT
ATOM      1  C   LIG    1       -3.598 -11.734 -18.808  0.00  0.00    +0.151 A 
ATOM      2  C   LIG    1       -3.629 -10.376 -19.128  0.00  0.00    -0.198 A 
ATOM      3  C   LIG    1       -4.305  -9.474 -18.293  0.00  0.00    +0.109 A 
ATOM      4  C   LIG    1       -4.942  -9.925 -17.155  0.00  0.00    +0.057 A 
ATOM      5  C   LIG    1       -4.916 -11.279 -16.826  0.00  0.00    +0.168 A 
ATOM      6  C   LIG    1       -4.240 -12.191 -17.658  0.00  0.00    -0.219 A 
ENDROOT
BRANCH   2   7
ATOM      7  C   LIG    1       -2.953  -9.890 -20.338  0.00  0.00    +0.500 C 
ATOM      8  O   LIG    1       -1.930  -9.245 -20.245  0.00  0.00    -0.452 OA
ENDBRANCH   2   7
BRANCH   4   9
ATOM      9  O   LIG    1       -5.595  -9.044 -16.350  0.00  0.00    -0.480 OA
ATOM     10  H   LIG    1       -6.346  -9.427 -15.875  0.00  0.00    +0.392 HD
ENDBRANCH   4   9
BRANCH   5  11
ATOM     11  O   LIG    1       -5.542 -11.718 -15.708  0.00  0.00    -0.480 OA
ATOM     12  H   LIG    1       -5.635 -11.045 -15.019  0.00  0.00    +0.402 HD
ENDBRANCH   5  11
BRANCH   6  13
ATOM     13  C   LIG    1       -4.212 -13.618 -17.315  0.00  0.00    +0.503 C 
ATOM     14  O   LIG    1       -3.731 -13.980 -16.262  0.00  0.00    -0.452 OA
ENDBRANCH   6  13
TORSDOF 4
ENDMDL
MODEL 5
REMARK VINA RESULT:      -5.5      8.648     10.772
REMARK  Name = CHEMBL355736
REMARK                            x       y       z     vdW  Elec       q    Type
REMARK                         _______ _______ _______ _____ _____    ______ ____
ROOT
ATOM      1  C   LIG    1       -4.296 -10.132 -18.491  0.00  0.00    +0.151 A 
ATOM      2  C   LIG    1       -3.584 -11.230 -18.975  0.00  0.00    -0.198 A 
ATOM      3  C   LIG    1       -3.581 -12.436 -18.259  0.00  0.00    +0.109 A 
ATOM      4  C   LIG    1       -4.281 -12.542 -17.075  0.00  0.00    +0.057 A 
ATOM      5  C   LIG    1       -4.995 -11.451 -16.582  0.00  0.00    +0.168 A 
ATOM      6  C   LIG    1       -5.004 -10.238 -17.294  0.00  0.00    -0.219 A 
ENDROOT
BRANCH   2   7
ATOM      7  C   LIG    1       -2.837 -11.123 -20.236  0.00  0.00    +0.500 C 
ATOM      8  O   LIG    1       -1.983 -10.272 -20.366  0.00  0.00    -0.452 OA
ENDBRANCH   2   7
BRANCH   4   9
ATOM      9  O   LIG    1       -4.274 -13.714 -16.386  0.00  0.00    -0.480 OA
ATOM     10  H   LIG    1       -5.155 -14.040 -16.153  0.00  0.00    +0.392 HD
ENDBRANCH   4   9
BRANCH   5  11
ATOM     11  O   LIG    1       -5.681 -11.559 -15.419  0.00  0.00    -0.480 OA
ATOM     12  H   LIG    1       -6.138 -12.404 -15.308  0.00  0.00    +0.402 HD
ENDBRANCH   5  11
BRANCH   6  13
ATOM     13  C   LIG    1       -5.755  -9.086 -16.778  0.00  0.00    +0.503 C 
ATOM     14  O   LIG    1       -6.901  -9.227 -16.405  0.00  0.00    -0.452 OA
ENDBRANCH   6  13
TORSDOF 4
ENDMDL
MODEL 6
REMARK VINA RESULT:      -5.4      7.670     10.404
REMARK  Name = CHEMBL355736
REMARK                            x       y       z     vdW  Elec       q    Type
REMARK                         _______ _______ _______ _____ _____    ______ ____
ROOT
ATOM      1  C   LIG    1       -4.517  -9.989 -18.234  0.00  0.00    +0.151 A 
ATOM      2  C   LIG    1       -5.300  -9.230 -17.364  0.00  0.00    -0.198 A 
ATOM      3  C   LIG    1       -5.777  -9.797 -16.172  0.00  0.00    +0.109 A 
ATOM      4  C   LIG    1       -5.474 -11.106 -15.856  0.00  0.00    +0.057 A 
ATOM      5  C   LIG    1       -4.692 -11.873 -16.719  0.00  0.00    +0.168 A 
ATOM      6  C   LIG    1       -4.210 -11.313 -17.915  0.00  0.00    -0.219 A 
ENDROOT
BRANCH   2   7
ATOM      7  C   LIG    1       -5.626  -7.837 -17.694  0.00  0.00    +0.500 C 
ATOM      8  O   LIG    1       -6.780  -7.508 -17.873  0.00  0.00    -0.452 OA
ENDBRANCH   2   7
BRANCH   4   9
ATOM      9  O   LIG    1       -5.939 -11.649 -14.699  0.00  0.00    -0.480 OA
ATOM     10  H   LIG    1       -5.398 -12.375 -14.359  0.00  0.00    +0.392 HD
ENDBRANCH   4   9
BRANCH   5  11
ATOM     11  O   LIG    1       -4.397 -13.157 -16.405  0.00  0.00    -0.480 OA
ATOM     12  H   LIG    1       -4.093 -13.280 -15.495  0.00  0.00    +0.402 HD
ENDBRANCH   5  11
BRANCH   6  13
ATOM     13  C   LIG    1       -3.387 -12.118 -18.827  0.00  0.00    +0.503 C 
ATOM     14  O   LIG    1       -3.775 -13.208 -19.191  0.00  0.00    -0.452 OA
ENDBRANCH   6  13
TORSDOF 4
ENDMDL
MODEL 7
REMARK VINA RESULT:      -5.2      9.597     11.616
REMARK  Name = CHEMBL355736
REMARK                            x       y       z     vdW  Elec       q    Type
REMARK                         _______ _______ _______ _____ _____    ______ ____
ROOT
ATOM      1  C   LIG    1       -3.317 -12.884 -19.394  0.00  0.00    +0.151 A 
ATOM      2  C   LIG    1       -3.500 -13.953 -18.516  0.00  0.00    -0.198 A 
ATOM      3  C   LIG    1       -4.065 -13.734 -17.251  0.00  0.00    +0.109 A 
ATOM      4  C   LIG    1       -4.443 -12.462 -16.870  0.00  0.00    +0.057 A 
ATOM      5  C   LIG    1       -4.264 -11.387 -17.739  0.00  0.00    +0.168 A 
ATOM      6  C   LIG    1       -3.698 -11.598 -19.009  0.00  0.00    -0.219 A 
ENDROOT
BRANCH   2   7
ATOM      7  C   LIG    1       -3.101 -15.309 -18.916  0.00  0.00    +0.500 C 
ATOM      8  O   LIG    1       -2.042 -15.766 -18.539  0.00  0.00    -0.452 OA
ENDBRANCH   2   7
BRANCH   4   9
ATOM      9  O   LIG    1       -4.991 -12.258 -15.642  0.00  0.00    -0.480 OA
ATOM     10  H   LIG    1       -5.538 -11.462 -15.583  0.00  0.00    +0.392 HD
ENDBRANCH   4   9
BRANCH   5  11
ATOM     11  O   LIG    1       -4.636 -10.141 -17.361  0.00  0.00    -0.480 OA
ATOM     12  H   LIG    1       -4.169  -9.810 -16.582  0.00  0.00    +0.402 HD
ENDBRANCH   5  11
BRANCH   6  13
ATOM     13  C   LIG    1       -3.508 -10.468 -19.928  0.00  0.00    +0.503 C 
ATOM     14  O   LIG    1       -2.800  -9.537 -19.606  0.00  0.00    -0.452 OA
ENDBRANCH   6  13
TORSDOF 4
ENDMDL
MODEL 8
REMARK VINA RESULT:      -5.1      2.433      5.467
REMARK  Name = CHEMBL355736
REMARK                            x       y       z     vdW  Elec       q    Type
REMARK                         _______ _______ _______ _____ _____    ______ ____
ROOT
ATOM      1  C   LIG    1       -7.357  -3.396 -21.095  0.00  0.00    +0.151 A 
ATOM      2  C   LIG    1       -6.634  -3.268 -19.908  0.00  0.00    -0.198 A 
ATOM      3  C   LIG    1       -7.046  -3.955 -18.757  0.00  0.00    +0.109 A 
ATOM      4  C   LIG    1       -8.167  -4.760 -18.793  0.00  0.00    +0.057 A 
ATOM      5  C   LIG    1       -8.896  -4.895 -19.973  0.00  0.00    +0.168 A 
ATOM      6  C   LIG    1       -8.490  -4.210 -21.132  0.00  0.00    -0.219 A 
ENDROOT
BRANCH   2   7
ATOM      7  C   LIG    1       -5.440  -2.413 -19.864  0.00  0.00    +0.500 C 
ATOM      8  O   LIG    1       -5.527  -1.269 -19.471  0.00  0.00    -0.452 OA
ENDBRANCH   2   7
BRANCH   4   9
ATOM      9  O   LIG    1       -8.560  -5.424 -17.673  0.00  0.00    -0.480 OA
ATOM     10  H   LIG    1       -9.159  -4.919 -17.106  0.00  0.00    +0.392 HD
ENDBRANCH   4   9
BRANCH   5  11
ATOM     11  O   LIG    1       -9.995  -5.686 -20.003  0.00  0.00    -0.480 OA
ATOM     12  H   LIG    1       -9.883  -6.497 -20.520  0.00  0.00    +0.402 HD
ENDBRANCH   5  11
BRANCH   6  13
ATOM     13  C   LIG    1       -9.256  -4.349 -22.376  0.00  0.00    +0.503 C 
ATOM     14  O   LIG    1       -9.445  -5.449 -22.853  0.00  0.00    -0.452 OA
ENDBRANCH   6  13
TORSDOF 4
ENDMDL
MODEL 9
REMARK VINA RESULT:      -5.0      2.872      4.764
REMARK  Name = CHEMBL355736
REMARK                            x       y       z     vdW  Elec       q    Type
REMARK                         _______ _______ _______ _____ _____    ______ ____
ROOT
ATOM      1  C   LIG    1       -7.726  -3.452 -21.775  0.00  0.00    +0.151 A 
ATOM      2  C   LIG    1       -8.781  -4.306 -22.098  0.00  0.00    -0.198 A 
ATOM      3  C   LIG    1       -9.337  -5.137 -21.115  0.00  0.00    +0.109 A 
ATOM      4  C   LIG    1       -8.844  -5.115 -19.826  0.00  0.00    +0.057 A 
ATOM      5  C   LIG    1       -7.790  -4.266 -19.493  0.00  0.00    +0.168 A 
ATOM      6  C   LIG    1       -7.226  -3.429 -20.472  0.00  0.00    -0.219 A 
ENDROOT
BRANCH   2   7
ATOM      7  C   LIG    1       -9.311  -4.333 -23.468  0.00  0.00    +0.500 C 
ATOM      8  O   LIG    1      -10.339  -4.929 -23.709  0.00  0.00    -0.452 OA
ENDBRANCH   2   7
BRANCH   4   9
ATOM      9  O   LIG    1       -9.388  -5.925 -18.878  0.00  0.00    -0.480 OA
ATOM     10  H   LIG    1       -8.780  -6.593 -18.534  0.00  0.00    +0.392 HD
ENDBRANCH   4   9
BRANCH   5  11
ATOM     11  O   LIG    1       -7.309  -4.248 -18.227  0.00  0.00    -0.480 OA
ATOM     12  H   LIG    1       -6.360  -4.067 -18.168  0.00  0.00    +0.402 HD
ENDBRANCH   5  11
BRANCH   6  13
ATOM     13  C   LIG    1       -6.116  -2.533 -20.125  0.00  0.00    +0.503 C 
ATOM     14  O   LIG    1       -5.141  -2.970 -19.549  0.00  0.00    -0.452 OA
ENDBRANCH   6  13
TORSDOF 4
ENDMDL
