MODEL 1
REMARK VINA RESULT:      -6.7      0.000      0.000
REMARK  Name = CHEMBL1091982
REMARK                            x       y       z     vdW  Elec       q    Type
REMARK                         _______ _______ _______ _____ _____    ______ ____
ROOT
ATOM      1  C   LIG    1       -2.829 -11.168 -21.179  0.00  0.00    -0.179 A 
ATOM      2  C   LIG    1       -2.839 -12.314 -20.441  0.00  0.00    +0.030 A 
ATOM      3 CL   LIG    1       -2.106 -13.758 -21.067  0.00  0.00    +0.006 Cl
ATOM      4  C   LIG    1       -3.444 -12.324 -19.171  0.00  0.00    -0.085 A 
ATOM      5  C   LIG    1       -3.554 -13.409 -18.262  0.00  0.00    +0.136 A 
ATOM      6  C   LIG    1       -4.176 -13.252 -17.063  0.00  0.00    +0.096 A 
ATOM      7  C   LIG    1       -4.726 -12.024 -16.681  0.00  0.00    +0.193 A 
ATOM      8  C   LIG    1       -4.638 -10.944 -17.542  0.00  0.00    -0.013 A 
ATOM      9  C   LIG    1       -4.010 -11.095 -18.759  0.00  0.00    -0.090 A 
ATOM     10  S   LIG    1       -3.674 -10.007 -20.122  0.00  0.00    +0.218 S 
ENDROOT
BRANCH   8  11
ATOM     11  N   LIG    1       -5.215  -9.636 -17.158  0.00  0.00    +0.022 N 
ATOM     12  O   LIG    1       -4.621  -8.615 -17.411  0.00  0.00    -0.109 OA
ATOM     13  O   LIG    1       -6.282  -9.589 -16.590  0.00  0.00    -0.124 OA
ENDBRANCH   8  11
BRANCH   1  14
ATOM     14  C   LIG    1       -2.259 -10.945 -22.510  0.00  0.00    +0.549 C 
ATOM     15  O   LIG    1       -2.820 -11.386 -23.494  0.00  0.00    -0.446 OA
BRANCH  14  16
ATOM     16  O   LIG    1       -1.111 -10.249 -22.643  0.00  0.00    -0.346 OA
BRANCH  16  17
ATOM     17  C   LIG    1       -0.149 -10.379 -21.594  0.00  0.00    +0.496 C 
BRANCH  17  18
ATOM     18  O   LIG    1        0.861  -9.379 -21.746  0.00  0.00    -0.354 OA
BRANCH  18  19
ATOM     19  C   LIG    1        0.564  -8.144 -21.313  0.00  0.00    +0.468 C 
ATOM     20  O   LIG    1       -0.192  -7.995 -20.383  0.00  0.00    -0.477 OA
BRANCH  19  21
ATOM     21  C   LIG    1        1.175  -6.942 -21.988  0.00  0.00    +0.226 C 
BRANCH  21  23
ATOM     22  C   LIG    1        0.653  -4.906 -23.339  0.00  0.00    +0.025 C 
ATOM     23  C   LIG    1        0.125  -6.263 -22.869  0.00  0.00    -0.043 C 
ATOM     24  C   LIG    1       -0.169  -7.146 -24.084  0.00  0.00    +0.040 C 
ENDBRANCH  21  23
BRANCH  21  25
ATOM     25  N   LIG    1        1.646  -5.996 -20.969  0.00  0.00    -0.829 NA
ATOM     26  H   LIG    1        2.239  -5.289 -21.377  0.00  0.00    +0.355 HD
ATOM     27  H   LIG    1        2.121  -6.477 -20.219  0.00  0.00    +0.357 HD
ENDBRANCH  21  25
ENDBRANCH  19  21
ENDBRANCH  18  19
ENDBRANCH  17  18
ENDBRANCH  16  17
ENDBRANCH  14  16
ENDBRANCH   1  14
BRANCH   6  28
ATOM     28  O   LIG    1       -4.263 -14.313 -16.215  0.00  0.00    -0.468 OA
ATOM     29  H   LIG    1       -4.326 -14.067 -15.282  0.00  0.00    +0.401 HD
ENDBRANCH   6  28
BRANCH   7  30
ATOM     30  O   LIG    1       -5.343 -11.894 -15.477  0.00  0.00    -0.467 OA
ATOM     31  H   LIG    1       -5.837 -12.679 -15.201  0.00  0.00    +0.413 HD
ENDBRANCH   7  30
TORSDOF 11
ENDMDL
MODEL 2
REMARK VINA RESULT:      -6.5      6.929     10.689
REMARK  Name = CHEMBL1091982
REMARK                            x       y       z     vdW  Elec       q    Type
REMARK                         _______ _______ _______ _____ _____    ______ ____
ROOT
ATOM      1  C   LIG    1        6.210  -7.568 -18.954  0.00  0.00    -0.179 A 
ATOM      2  C   LIG    1        6.805  -6.539 -19.620  0.00  0.00    +0.030 A 
ATOM      3 CL   LIG    1        7.204  -6.707 -21.302  0.00  0.00    +0.006 Cl
ATOM      4  C   LIG    1        7.094  -5.340 -18.943  0.00  0.00    -0.085 A 
ATOM      5  C   LIG    1        7.704  -4.167 -19.461  0.00  0.00    +0.136 A 
ATOM      6  C   LIG    1        7.916  -3.084 -18.667  0.00  0.00    +0.096 A 
ATOM      7  C   LIG    1        7.543  -3.083 -17.319  0.00  0.00    +0.193 A 
ATOM      8  C   LIG    1        6.946  -4.209 -16.779  0.00  0.00    -0.013 A 
ATOM      9  C   LIG    1        6.728  -5.312 -17.578  0.00  0.00    -0.090 A 
ATOM     10  S   LIG    1        6.007  -6.912 -17.308  0.00  0.00    +0.218 S 
ENDROOT
BRANCH   8  11
ATOM     11  N   LIG    1        6.544  -4.229 -15.355  0.00  0.00    +0.022 N 
ATOM     12  O   LIG    1        6.940  -5.109 -14.627  0.00  0.00    -0.109 OA
ATOM     13  O   LIG    1        5.818  -3.366 -14.919  0.00  0.00    -0.124 OA
ENDBRANCH   8  11
BRANCH   1  14
ATOM     14  C   LIG    1        5.828  -8.887 -19.465  0.00  0.00    +0.549 C 
ATOM     15  O   LIG    1        6.310  -9.891 -18.980  0.00  0.00    -0.446 OA
BRANCH  14  16
ATOM     16  O   LIG    1        4.940  -8.985 -20.476  0.00  0.00    -0.346 OA
BRANCH  16  17
ATOM     17  C   LIG    1        3.584  -8.639 -20.183  0.00  0.00    +0.496 C 
BRANCH  17  18
ATOM     18  O   LIG    1        3.261  -7.400 -20.819  0.00  0.00    -0.354 OA
BRANCH  18  19
ATOM     19  C   LIG    1        1.958  -7.120 -20.979  0.00  0.00    +0.468 C 
ATOM     20  O   LIG    1        1.551  -6.001 -20.774  0.00  0.00    -0.477 OA
BRANCH  19  21
ATOM     21  C   LIG    1        1.003  -8.202 -21.415  0.00  0.00    +0.226 C 
BRANCH  21  23
ATOM     22  C   LIG    1       -1.219  -7.863 -22.506  0.00  0.00    +0.025 C 
ATOM     23  C   LIG    1       -0.436  -7.731 -21.198  0.00  0.00    -0.043 C 
ATOM     24  C   LIG    1       -1.096  -8.591 -20.118  0.00  0.00    +0.040 C 
ENDBRANCH  21  23
BRANCH  21  25
ATOM     25  N   LIG    1        1.214  -8.494 -22.839  0.00  0.00    -0.829 NA
ATOM     26  H   LIG    1        1.552  -7.679 -23.329  0.00  0.00    +0.355 HD
ATOM     27  H   LIG    1        0.369  -8.846 -23.265  0.00  0.00    +0.357 HD
ENDBRANCH  21  25
ENDBRANCH  19  21
ENDBRANCH  18  19
ENDBRANCH  17  18
ENDBRANCH  16  17
ENDBRANCH  14  16
ENDBRANCH   1  14
BRANCH   6  28
ATOM     28  O   LIG    1        8.503  -1.976 -19.195  0.00  0.00    -0.468 OA
ATOM     29  H   LIG    1        8.872  -1.373 -18.536  0.00  0.00    +0.401 HD
ENDBRANCH   6  28
BRANCH   7  30
ATOM     30  O   LIG    1        7.766  -1.987 -16.545  0.00  0.00    -0.467 OA
ATOM     31  H   LIG    1        7.660  -1.147 -17.014  0.00  0.00    +0.413 HD
ENDBRANCH   7  30
TORSDOF 11
ENDMDL
MODEL 3
REMARK VINA RESULT:      -6.1      2.815      8.308
REMARK  Name = CHEMBL1091982
REMARK                            x       y       z     vdW  Elec       q    Type
REMARK                         _______ _______ _______ _____ _____    ______ ____
ROOT
ATOM      1  C   LIG    1       -1.513  -9.496 -21.882  0.00  0.00    -0.179 A 
ATOM      2  C   LIG    1       -1.921  -8.620 -22.843  0.00  0.00    +0.030 A 
ATOM      3 CL   LIG    1       -3.404  -8.899 -23.702  0.00  0.00    +0.006 Cl
ATOM      4  C   LIG    1       -1.138  -7.488 -23.138  0.00  0.00    -0.085 A 
ATOM      5  C   LIG    1       -1.394  -6.472 -24.095  0.00  0.00    +0.136 A 
ATOM      6  C   LIG    1       -0.528  -5.436 -24.258  0.00  0.00    +0.096 A 
ATOM      7  C   LIG    1        0.639  -5.332 -23.494  0.00  0.00    +0.193 A 
ATOM      8  C   LIG    1        0.921  -6.306 -22.551  0.00  0.00    -0.013 A 
ATOM      9  C   LIG    1        0.049  -7.359 -22.379  0.00  0.00    -0.090 A 
ATOM     10  S   LIG    1        0.017  -8.778 -21.313  0.00  0.00    +0.218 S 
ENDROOT
BRANCH   8  11
ATOM     11  N   LIG    1        2.151  -6.215 -21.732  0.00  0.00    +0.022 N 
ATOM     12  O   LIG    1        2.075  -6.205 -20.526  0.00  0.00    -0.109 OA
ATOM     13  O   LIG    1        3.232  -6.151 -22.270  0.00  0.00    -0.124 OA
ENDBRANCH   8  11
BRANCH   1  14
ATOM     14  C   LIG    1       -2.172 -10.723 -21.427  0.00  0.00    +0.549 C 
ATOM     15  O   LIG    1       -1.598 -11.791 -21.514  0.00  0.00    -0.446 OA
BRANCH  14  16
ATOM     16  O   LIG    1       -3.417 -10.666 -20.910  0.00  0.00    -0.346 OA
BRANCH  16  17
ATOM     17  C   LIG    1       -3.548 -10.120 -19.596  0.00  0.00    +0.496 C 
BRANCH  17  18
ATOM     18  O   LIG    1       -4.464 -10.916 -18.839  0.00  0.00    -0.354 OA
BRANCH  18  19
ATOM     19  C   LIG    1       -3.935 -11.791 -17.969  0.00  0.00    +0.468 C 
ATOM     20  O   LIG    1       -3.202 -11.404 -17.091  0.00  0.00    -0.477 OA
BRANCH  19  21
ATOM     21  C   LIG    1       -4.256 -13.259 -18.091  0.00  0.00    +0.226 C 
BRANCH  21  23
ATOM     22  C   LIG    1       -2.881 -15.300 -18.522  0.00  0.00    +0.025 C 
ATOM     23  C   LIG    1       -3.269 -13.919 -19.055  0.00  0.00    -0.043 C 
ATOM     24  C   LIG    1       -3.922 -14.067 -20.431  0.00  0.00    +0.040 C 
ENDBRANCH  21  23
BRANCH  21  25
ATOM     25  N   LIG    1       -4.150 -13.893 -16.770  0.00  0.00    -0.829 NA
ATOM     26  H   LIG    1       -4.738 -14.710 -16.712  0.00  0.00    +0.355 HD
ATOM     27  H   LIG    1       -4.369 -13.237 -16.035  0.00  0.00    +0.357 HD
ENDBRANCH  21  25
ENDBRANCH  19  21
ENDBRANCH  18  19
ENDBRANCH  17  18
ENDBRANCH  16  17
ENDBRANCH  14  16
ENDBRANCH   1  14
BRANCH   6  28
ATOM     28  O   LIG    1       -0.804  -4.478 -25.185  0.00  0.00    -0.468 OA
ATOM     29  H   LIG    1       -1.412  -4.766 -25.879  0.00  0.00    +0.401 HD
ENDBRANCH   6  28
BRANCH   7  30
ATOM     30  O   LIG    1        1.488  -4.287 -23.677  0.00  0.00    -0.467 OA
ATOM     31  H   LIG    1        2.248  -4.492 -24.240  0.00  0.00    +0.413 HD
ENDBRANCH   7  30
TORSDOF 11
ENDMDL
MODEL 4
REMARK VINA RESULT:      -6.1      4.945      7.860
REMARK  Name = CHEMBL1091982
REMARK                            x       y       z     vdW  Elec       q    Type
REMARK                         _______ _______ _______ _____ _____    ______ ____
ROOT
ATOM      1  C   LIG    1       -2.473 -14.915 -20.925  0.00  0.00    -0.179 A 
ATOM      2  C   LIG    1       -3.009 -15.009 -19.676  0.00  0.00    +0.030 A 
ATOM      3 CL   LIG    1       -3.204 -16.563 -18.927  0.00  0.00    +0.006 Cl
ATOM      4  C   LIG    1       -3.403 -13.843 -18.993  0.00  0.00    -0.085 A 
ATOM      5  C   LIG    1       -3.975 -13.737 -17.698  0.00  0.00    +0.136 A 
ATOM      6  C   LIG    1       -4.303 -12.524 -17.179  0.00  0.00    +0.096 A 
ATOM      7  C   LIG    1       -4.090 -11.342 -17.895  0.00  0.00    +0.193 A 
ATOM      8  C   LIG    1       -3.534 -11.406 -19.161  0.00  0.00    -0.013 A 
ATOM      9  C   LIG    1       -3.199 -12.632 -19.695  0.00  0.00    -0.090 A 
ATOM     10  S   LIG    1       -2.479 -13.158 -21.230  0.00  0.00    +0.218 S 
ENDROOT
BRANCH   8  11
ATOM     11  N   LIG    1       -3.302 -10.167 -19.937  0.00  0.00    +0.022 N 
ATOM     12  O   LIG    1       -2.545  -9.323 -19.517  0.00  0.00    -0.109 OA
ATOM     13  O   LIG    1       -3.869  -9.998 -20.992  0.00  0.00    -0.124 OA
ENDBRANCH   8  11
BRANCH   1  14
ATOM     14  C   LIG    1       -2.004 -15.993 -21.799  0.00  0.00    +0.549 C 
ATOM     15  O   LIG    1       -2.743 -16.456 -22.646  0.00  0.00    -0.446 OA
BRANCH  14  16
ATOM     16  O   LIG    1       -0.750 -16.472 -21.664  0.00  0.00    -0.346 OA
BRANCH  16  17
ATOM     17  C   LIG    1       -0.584 -17.632 -20.845  0.00  0.00    +0.496 C 
BRANCH  17  18
ATOM     18  O   LIG    1       -1.061 -18.782 -21.545  0.00  0.00    -0.354 OA
BRANCH  18  19
ATOM     19  C   LIG    1       -1.932 -19.572 -20.897  0.00  0.00    +0.468 C 
ATOM     20  O   LIG    1       -1.645 -20.029 -19.816  0.00  0.00    -0.477 OA
BRANCH  19  21
ATOM     21  C   LIG    1       -3.267 -19.890 -21.521  0.00  0.00    +0.226 C 
BRANCH  21  23
ATOM     22  C   LIG    1       -5.370 -18.552 -21.700  0.00  0.00    +0.025 C 
ATOM     23  C   LIG    1       -4.377 -19.195 -20.729  0.00  0.00    -0.043 C 
ATOM     24  C   LIG    1       -5.105 -20.225 -19.862  0.00  0.00    +0.040 C 
ENDBRANCH  21  23
BRANCH  21  25
ATOM     25  N   LIG    1       -3.284 -19.413 -22.910  0.00  0.00    -0.829 NA
ATOM     26  H   LIG    1       -4.142 -18.924 -23.115  0.00  0.00    +0.355 HD
ATOM     27  H   LIG    1       -3.139 -20.175 -23.556  0.00  0.00    +0.357 HD
ENDBRANCH  21  25
ENDBRANCH  19  21
ENDBRANCH  18  19
ENDBRANCH  17  18
ENDBRANCH  16  17
ENDBRANCH  14  16
ENDBRANCH   1  14
BRANCH   6  28
ATOM     28  O   LIG    1       -4.849 -12.459 -15.934  0.00  0.00    -0.468 OA
ATOM     29  H   LIG    1       -4.535 -13.145 -15.330  0.00  0.00    +0.401 HD
ENDBRANCH   6  28
BRANCH   7  30
ATOM     30  O   LIG    1       -4.427 -10.141 -17.354  0.00  0.00    -0.467 OA
ATOM     31  H   LIG    1       -5.018  -9.612 -17.908  0.00  0.00    +0.413 HD
ENDBRANCH   7  30
TORSDOF 11
ENDMDL
MODEL 5
REMARK VINA RESULT:      -5.9      2.477      3.397
REMARK  Name = CHEMBL1091982
REMARK                            x       y       z     vdW  Elec       q    Type
REMARK                         _______ _______ _______ _____ _____    ______ ____
ROOT
ATOM      1  C   LIG    1       -2.082 -10.329 -20.960  0.00  0.00    -0.179 A 
ATOM      2  C   LIG    1       -2.642 -10.110 -19.737  0.00  0.00    +0.030 A 
ATOM      3 CL   LIG    1       -2.739  -8.498 -19.100  0.00  0.00    +0.006 Cl
ATOM      4  C   LIG    1       -3.142 -11.194 -18.991  0.00  0.00    -0.085 A 
ATOM      5  C   LIG    1       -3.755 -11.167 -17.711  0.00  0.00    +0.136 A 
ATOM      6  C   LIG    1       -4.186 -12.315 -17.122  0.00  0.00    +0.096 A 
ATOM      7  C   LIG    1       -4.045 -13.556 -17.751  0.00  0.00    +0.193 A 
ATOM      8  C   LIG    1       -3.452 -13.620 -19.000  0.00  0.00    -0.013 A 
ATOM      9  C   LIG    1       -3.011 -12.462 -19.604  0.00  0.00    -0.090 A 
ATOM     10  S   LIG    1       -2.227 -12.096 -21.153  0.00  0.00    +0.218 S 
ENDROOT
BRANCH   8  11
ATOM     11  N   LIG    1       -3.292 -14.924 -19.683  0.00  0.00    +0.022 N 
ATOM     12  O   LIG    1       -2.692 -15.822 -19.139  0.00  0.00    -0.109 OA
ATOM     13  O   LIG    1       -3.762 -15.091 -20.784  0.00  0.00    -0.124 OA
ENDBRANCH   8  11
BRANCH   1  14
ATOM     14  C   LIG    1       -1.507  -9.352 -21.888  0.00  0.00    +0.549 C 
ATOM     15  O   LIG    1       -2.236  -8.654 -22.565  0.00  0.00    -0.446 OA
BRANCH  14  16
ATOM     16  O   LIG    1       -0.168  -9.226 -21.990  0.00  0.00    -0.346 OA
BRANCH  16  17
ATOM     17  C   LIG    1        0.524  -8.718 -20.848  0.00  0.00    +0.496 C 
BRANCH  17  18
ATOM     18  O   LIG    1        0.322  -7.306 -20.757  0.00  0.00    -0.354 OA
BRANCH  18  19
ATOM     19  C   LIG    1        1.282  -6.518 -21.266  0.00  0.00    +0.468 C 
ATOM     20  O   LIG    1        2.269  -6.271 -20.615  0.00  0.00    -0.477 OA
BRANCH  19  21
ATOM     21  C   LIG    1        1.129  -5.943 -22.651  0.00  0.00    +0.226 C 
BRANCH  21  23
ATOM     22  C   LIG    1        1.533  -7.066 -24.846  0.00  0.00    +0.025 C 
ATOM     23  C   LIG    1        2.196  -6.538 -23.572  0.00  0.00    -0.043 C 
ATOM     24  C   LIG    1        3.215  -5.457 -23.936  0.00  0.00    +0.040 C 
ENDBRANCH  21  23
BRANCH  21  25
ATOM     25  N   LIG    1       -0.206  -6.272 -23.171  0.00  0.00    -0.829 NA
ATOM     26  H   LIG    1       -0.147  -6.954 -23.912  0.00  0.00    +0.355 HD
ATOM     27  H   LIG    1       -0.688  -5.441 -23.482  0.00  0.00    +0.357 HD
ENDBRANCH  21  25
ENDBRANCH  19  21
ENDBRANCH  18  19
ENDBRANCH  17  18
ENDBRANCH  16  17
ENDBRANCH  14  16
ENDBRANCH   1  14
BRANCH   6  28
ATOM     28  O   LIG    1       -4.769 -12.253 -15.894  0.00  0.00    -0.468 OA
ATOM     29  H   LIG    1       -4.977 -13.117 -15.513  0.00  0.00    +0.401 HD
ENDBRANCH   6  28
BRANCH   7  30
ATOM     30  O   LIG    1       -4.485 -14.689 -17.141  0.00  0.00    -0.467 OA
ATOM     31  H   LIG    1       -4.222 -15.504 -17.590  0.00  0.00    +0.413 HD
ENDBRANCH   7  30
TORSDOF 11
ENDMDL
MODEL 6
REMARK VINA RESULT:      -5.9      7.130     10.811
REMARK  Name = CHEMBL1091982
REMARK                            x       y       z     vdW  Elec       q    Type
REMARK                         _______ _______ _______ _____ _____    ______ ____
ROOT
ATOM      1  C   LIG    1        7.509  -7.125 -20.326  0.00  0.00    -0.179 A 
ATOM      2  C   LIG    1        7.081  -7.300 -19.044  0.00  0.00    +0.030 A 
ATOM      3 CL   LIG    1        6.590  -8.874 -18.498  0.00  0.00    +0.006 Cl
ATOM      4  C   LIG    1        7.040  -6.204 -18.163  0.00  0.00    -0.085 A 
ATOM      5  C   LIG    1        6.629  -6.187 -16.804  0.00  0.00    +0.136 A 
ATOM      6  C   LIG    1        6.648  -5.033 -16.086  0.00  0.00    +0.096 A 
ATOM      7  C   LIG    1        7.071  -3.826 -16.654  0.00  0.00    +0.193 A 
ATOM      8  C   LIG    1        7.478  -3.805 -17.976  0.00  0.00    -0.013 A 
ATOM      9  C   LIG    1        7.462  -4.970 -18.712  0.00  0.00    -0.090 A 
ATOM     10  S   LIG    1        7.894  -5.385 -20.383  0.00  0.00    +0.218 S 
ENDROOT
BRANCH   8  11
ATOM     11  N   LIG    1        7.928  -2.538 -18.597  0.00  0.00    +0.022 N 
ATOM     12  O   LIG    1        7.248  -2.002 -19.439  0.00  0.00    -0.109 OA
ATOM     13  O   LIG    1        8.978  -2.040 -18.261  0.00  0.00    -0.124 OA
ENDBRANCH   8  11
BRANCH   1  14
ATOM     14  C   LIG    1        7.627  -8.123 -21.392  0.00  0.00    +0.549 C 
ATOM     15  O   LIG    1        8.714  -8.373 -21.875  0.00  0.00    -0.446 OA
BRANCH  14  16
ATOM     16  O   LIG    1        6.528  -8.765 -21.839  0.00  0.00    -0.346 OA
BRANCH  16  17
ATOM     17  C   LIG    1        5.395  -7.958 -22.169  0.00  0.00    +0.496 C 
BRANCH  17  18
ATOM     18  O   LIG    1        4.256  -8.414 -21.436  0.00  0.00    -0.354 OA
BRANCH  18  19
ATOM     19  C   LIG    1        3.462  -7.474 -20.898  0.00  0.00    +0.468 C 
ATOM     20  O   LIG    1        3.896  -6.725 -20.056  0.00  0.00    -0.477 OA
BRANCH  19  21
ATOM     21  C   LIG    1        2.027  -7.355 -21.346  0.00  0.00    +0.226 C 
BRANCH  21  23
ATOM     22  C   LIG    1       -0.263  -8.002 -20.585  0.00  0.00    +0.025 C 
ATOM     23  C   LIG    1        1.194  -8.457 -20.688  0.00  0.00    -0.043 C 
ATOM     24  C   LIG    1        1.274  -9.729 -21.535  0.00  0.00    +0.040 C 
ENDBRANCH  21  23
BRANCH  21  25
ATOM     25  N   LIG    1        1.500  -6.042 -20.952  0.00  0.00    -0.829 NA
ATOM     26  H   LIG    1        1.996  -5.678 -20.152  0.00  0.00    +0.355 HD
ATOM     27  H   LIG    1        0.508  -6.089 -20.770  0.00  0.00    +0.357 HD
ENDBRANCH  21  25
ENDBRANCH  19  21
ENDBRANCH  18  19
ENDBRANCH  17  18
ENDBRANCH  16  17
ENDBRANCH  14  16
ENDBRANCH   1  14
BRANCH   6  28
ATOM     28  O   LIG    1        6.248  -5.052 -14.785  0.00  0.00    -0.468 OA
ATOM     29  H   LIG    1        6.963  -4.908 -14.151  0.00  0.00    +0.401 HD
ENDBRANCH   6  28
BRANCH   7  30
ATOM     30  O   LIG    1        7.080  -2.685 -15.914  0.00  0.00    -0.467 OA
ATOM     31  H   LIG    1        6.633  -1.939 -16.337  0.00  0.00    +0.413 HD
ENDBRANCH   7  30
TORSDOF 11
ENDMDL
MODEL 7
REMARK VINA RESULT:      -5.7      4.998      8.114
REMARK  Name = CHEMBL1091982
REMARK                            x       y       z     vdW  Elec       q    Type
REMARK                         _______ _______ _______ _____ _____    ______ ____
ROOT
ATOM      1  C   LIG    1       -2.342 -14.821 -20.939  0.00  0.00    -0.179 A 
ATOM      2  C   LIG    1       -2.847 -14.985 -19.684  0.00  0.00    +0.030 A 
ATOM      3 CL   LIG    1       -2.912 -16.567 -18.972  0.00  0.00    +0.006 Cl
ATOM      4  C   LIG    1       -3.315 -13.869 -18.966  0.00  0.00    -0.085 A 
ATOM      5  C   LIG    1       -3.871 -13.838 -17.660  0.00  0.00    +0.136 A 
ATOM      6  C   LIG    1       -4.279 -12.666 -17.105  0.00  0.00    +0.096 A 
ATOM      7  C   LIG    1       -4.168 -11.454 -17.794  0.00  0.00    +0.193 A 
ATOM      8  C   LIG    1       -3.632 -11.446 -19.070  0.00  0.00    -0.013 A 
ATOM      9  C   LIG    1       -3.215 -12.629 -19.640  0.00  0.00    -0.090 A 
ATOM     10  S   LIG    1       -2.485 -13.062 -21.199  0.00  0.00    +0.218 S 
ENDROOT
BRANCH   8  11
ATOM     11  N   LIG    1       -3.506 -10.174 -19.817  0.00  0.00    +0.022 N 
ATOM     12  O   LIG    1       -3.993 -10.068 -20.918  0.00  0.00    -0.109 OA
ATOM     13  O   LIG    1       -2.916  -9.240 -19.326  0.00  0.00    -0.124 OA
ENDBRANCH   8  11
BRANCH   1  14
ATOM     14  C   LIG    1       -1.808 -15.839 -21.848  0.00  0.00    +0.549 C 
ATOM     15  O   LIG    1       -0.639 -15.806 -22.180  0.00  0.00    -0.446 OA
BRANCH  14  16
ATOM     16  O   LIG    1       -2.615 -16.813 -22.316  0.00  0.00    -0.346 OA
BRANCH  16  17
ATOM     17  C   LIG    1       -3.623 -16.426 -23.252  0.00  0.00    +0.496 C 
BRANCH  17  18
ATOM     18  O   LIG    1       -4.913 -16.584 -22.657  0.00  0.00    -0.354 OA
BRANCH  18  19
ATOM     19  C   LIG    1       -5.645 -17.635 -23.058  0.00  0.00    +0.468 C 
ATOM     20  O   LIG    1       -6.657 -17.459 -23.693  0.00  0.00    -0.477 OA
BRANCH  19  21
ATOM     21  C   LIG    1       -5.202 -19.035 -22.715  0.00  0.00    +0.226 C 
BRANCH  21  23
ATOM     22  C   LIG    1       -6.627 -20.824 -21.710  0.00  0.00    +0.025 C 
ATOM     23  C   LIG    1       -5.914 -19.497 -21.442  0.00  0.00    -0.043 C 
ATOM     24  C   LIG    1       -4.886 -19.686 -20.324  0.00  0.00    +0.040 C 
ENDBRANCH  21  23
BRANCH  21  25
ATOM     25  N   LIG    1       -5.542 -19.939 -23.822  0.00  0.00    -0.829 NA
ATOM     26  H   LIG    1       -4.762 -20.536 -24.054  0.00  0.00    +0.355 HD
ATOM     27  H   LIG    1       -5.852 -19.420 -24.631  0.00  0.00    +0.357 HD
ENDBRANCH  21  25
ENDBRANCH  19  21
ENDBRANCH  18  19
ENDBRANCH  17  18
ENDBRANCH  16  17
ENDBRANCH  14  16
ENDBRANCH   1  14
BRANCH   6  28
ATOM     28  O   LIG    1       -4.807 -12.672 -15.851  0.00  0.00    -0.468 OA
ATOM     29  H   LIG    1       -4.298 -13.189 -15.212  0.00  0.00    +0.401 HD
ENDBRANCH   6  28
BRANCH   7  30
ATOM     30  O   LIG    1       -4.585 -10.296 -17.217  0.00  0.00    -0.467 OA
ATOM     31  H   LIG    1       -4.196 -10.128 -16.347  0.00  0.00    +0.413 HD
ENDBRANCH   7  30
TORSDOF 11
ENDMDL
MODEL 8
REMARK VINA RESULT:      -5.7      2.223      3.317
REMARK  Name = CHEMBL1091982
REMARK                            x       y       z     vdW  Elec       q    Type
REMARK                         _______ _______ _______ _____ _____    ______ ____
ROOT
ATOM      1  C   LIG    1       -2.609 -12.293 -21.867  0.00  0.00    -0.179 A 
ATOM      2  C   LIG    1       -3.123 -11.187 -21.261  0.00  0.00    +0.030 A 
ATOM      3 CL   LIG    1       -3.221  -9.685 -22.127  0.00  0.00    +0.006 Cl
ATOM      4  C   LIG    1       -3.576 -11.263 -19.930  0.00  0.00    -0.085 A 
ATOM      5  C   LIG    1       -4.138 -10.230 -19.135  0.00  0.00    +0.136 A 
ATOM      6  C   LIG    1       -4.527 -10.470 -17.855  0.00  0.00    +0.096 A 
ATOM      7  C   LIG    1       -4.391 -11.737 -17.276  0.00  0.00    +0.193 A 
ATOM      8  C   LIG    1       -3.847 -12.768 -18.021  0.00  0.00    -0.013 A 
ATOM      9  C   LIG    1       -3.450 -12.533 -19.320  0.00  0.00    -0.090 A 
ATOM     10  S   LIG    1       -2.733 -13.538 -20.596  0.00  0.00    +0.218 S 
ENDROOT
BRANCH   8  11
ATOM     11  N   LIG    1       -3.693 -14.116 -17.427  0.00  0.00    +0.022 N 
ATOM     12  O   LIG    1       -3.626 -15.088 -18.142  0.00  0.00    -0.109 OA
ATOM     13  O   LIG    1       -3.635 -14.244 -16.226  0.00  0.00    -0.124 OA
ENDBRANCH   8  11
BRANCH   1  14
ATOM     14  C   LIG    1       -2.088 -12.427 -23.230  0.00  0.00    +0.549 C 
ATOM     15  O   LIG    1       -2.816 -12.808 -24.126  0.00  0.00    -0.446 OA
BRANCH  14  16
ATOM     16  O   LIG    1       -0.799 -12.128 -23.490  0.00  0.00    -0.346 OA
BRANCH  16  17
ATOM     17  C   LIG    1       -0.551 -11.175 -24.526  0.00  0.00    +0.496 C 
BRANCH  17  18
ATOM     18  O   LIG    1       -0.484  -9.864 -23.962  0.00  0.00    -0.354 OA
BRANCH  18  19
ATOM     19  C   LIG    1        0.702  -9.471 -23.471  0.00  0.00    +0.468 C 
ATOM     20  O   LIG    1        1.655  -9.367 -24.206  0.00  0.00    -0.477 OA
BRANCH  19  21
ATOM     21  C   LIG    1        0.844  -9.161 -22.003  0.00  0.00    +0.226 C 
BRANCH  21  23
ATOM     22  C   LIG    1       -0.714  -8.203 -20.300  0.00  0.00    +0.025 C 
ATOM     23  C   LIG    1       -0.033  -7.959 -21.649  0.00  0.00    -0.043 C 
ATOM     24  C   LIG    1        0.836  -6.702 -21.562  0.00  0.00    +0.040 C 
ENDBRANCH  21  23
BRANCH  21  25
ATOM     25  N   LIG    1        0.419 -10.326 -21.215  0.00  0.00    -0.829 NA
ATOM     26  H   LIG    1        1.003 -11.126 -21.408  0.00  0.00    +0.355 HD
ATOM     27  H   LIG    1       -0.553 -10.540 -21.380  0.00  0.00    +0.357 HD
ENDBRANCH  21  25
ENDBRANCH  19  21
ENDBRANCH  18  19
ENDBRANCH  17  18
ENDBRANCH  16  17
ENDBRANCH  14  16
ENDBRANCH   1  14
BRANCH   6  28
ATOM     28  O   LIG    1       -5.062  -9.457 -17.121  0.00  0.00    -0.468 OA
ATOM     29  H   LIG    1       -4.463  -8.711 -16.985  0.00  0.00    +0.401 HD
ENDBRANCH   6  28
BRANCH   7  30
ATOM     30  O   LIG    1       -4.788 -11.951 -15.994  0.00  0.00    -0.467 OA
ATOM     31  H   LIG    1       -4.593 -11.217 -15.394  0.00  0.00    +0.413 HD
ENDBRANCH   7  30
TORSDOF 11
ENDMDL
MODEL 9
REMARK VINA RESULT:      -5.5      6.021      9.865
REMARK  Name = CHEMBL1091982
REMARK                            x       y       z     vdW  Elec       q    Type
REMARK                         _______ _______ _______ _____ _____    ______ ____
ROOT
ATOM      1  C   LIG    1        5.636  -7.970 -21.340  0.00  0.00    -0.179 A 
ATOM      2  C   LIG    1        5.348  -7.987 -20.008  0.00  0.00    +0.030 A 
ATOM      3 CL   LIG    1        4.320  -9.225 -19.355  0.00  0.00    +0.006 Cl
ATOM      4  C   LIG    1        5.887  -7.000 -19.162  0.00  0.00    -0.085 A 
ATOM      5  C   LIG    1        5.705  -6.852 -17.762  0.00  0.00    +0.136 A 
ATOM      6  C   LIG    1        6.300  -5.833 -17.086  0.00  0.00    +0.096 A 
ATOM      7  C   LIG    1        7.110  -4.898 -17.740  0.00  0.00    +0.193 A 
ATOM      8  C   LIG    1        7.310  -5.011 -19.105  0.00  0.00    -0.013 A 
ATOM      9  C   LIG    1        6.710  -6.041 -19.797  0.00  0.00    -0.090 A 
ATOM     10  S   LIG    1        6.703  -6.550 -21.498  0.00  0.00    +0.218 S 
ENDROOT
BRANCH   8  11
ATOM     11  N   LIG    1        8.162  -4.032 -19.816  0.00  0.00    +0.022 N 
ATOM     12  O   LIG    1        7.776  -2.898 -19.978  0.00  0.00    -0.109 OA
ATOM     13  O   LIG    1        9.246  -4.366 -20.236  0.00  0.00    -0.124 OA
ENDBRANCH   8  11
BRANCH   1  14
ATOM     14  C   LIG    1        5.184  -8.894 -22.383  0.00  0.00    +0.549 C 
ATOM     15  O   LIG    1        5.710  -9.983 -22.502  0.00  0.00    -0.446 OA
BRANCH  14  16
ATOM     16  O   LIG    1        4.181  -8.535 -23.211  0.00  0.00    -0.346 OA
BRANCH  16  17
ATOM     17  C   LIG    1        3.323  -7.480 -22.772  0.00  0.00    +0.496 C 
BRANCH  17  18
ATOM     18  O   LIG    1        2.178  -8.036 -22.121  0.00  0.00    -0.354 OA
BRANCH  18  19
ATOM     19  C   LIG    1        1.460  -7.212 -21.342  0.00  0.00    +0.468 C 
ATOM     20  O   LIG    1        2.019  -6.460 -20.581  0.00  0.00    -0.477 OA
BRANCH  19  21
ATOM     21  C   LIG    1       -0.046  -7.227 -21.419  0.00  0.00    +0.226 C 
BRANCH  21  23
ATOM     22  C   LIG    1       -1.334  -9.150 -22.359  0.00  0.00    +0.025 C 
ATOM     23  C   LIG    1       -0.484  -7.926 -22.707  0.00  0.00    -0.043 C 
ATOM     24  C   LIG    1       -1.308  -6.957 -23.557  0.00  0.00    +0.040 C 
ENDBRANCH  21  23
BRANCH  21  25
ATOM     25  N   LIG    1       -0.586  -7.951 -20.260  0.00  0.00    -0.829 NA
ATOM     26  H   LIG    1       -0.228  -7.572 -19.397  0.00  0.00    +0.355 HD
ATOM     27  H   LIG    1       -0.392  -8.940 -20.328  0.00  0.00    +0.357 HD
ENDBRANCH  21  25
ENDBRANCH  19  21
ENDBRANCH  18  19
ENDBRANCH  17  18
ENDBRANCH  16  17
ENDBRANCH  14  16
ENDBRANCH   1  14
BRANCH   6  28
ATOM     28  O   LIG    1        6.104  -5.721 -15.744  0.00  0.00    -0.468 OA
ATOM     29  H   LIG    1        6.385  -6.496 -15.239  0.00  0.00    +0.401 HD
ENDBRANCH   6  28
BRANCH   7  30
ATOM     30  O   LIG    1        7.694  -3.888 -17.042  0.00  0.00    -0.467 OA
ATOM     31  H   LIG    1        7.728  -4.040 -16.086  0.00  0.00    +0.413 HD
ENDBRANCH   7  30
TORSDOF 11
ENDMDL
