MODEL 1
REMARK VINA RESULT:      -6.6      0.000      0.000
REMARK  Name = CHEMBL1091982
REMARK                            x       y       z     vdW  Elec       q    Type
REMARK                         _______ _______ _______ _____ _____    ______ ____
ROOT
ATOM      1  C   LIG    1        6.198  -7.620 -18.895  0.00  0.00    -0.290 A 
ATOM      2  C   LIG    1        6.803  -6.614 -19.586  0.00  0.00    +0.113 A 
ATOM      3 CL   LIG    1        7.211  -6.831 -21.259  0.00  0.00    -0.030 Cl
ATOM      4  C   LIG    1        7.097  -5.399 -18.941  0.00  0.00    -0.220 A 
ATOM      5  C   LIG    1        7.719  -4.245 -19.487  0.00  0.00    +0.107 A 
ATOM      6  C   LIG    1        7.933  -3.141 -18.722  0.00  0.00    +0.026 A 
ATOM      7  C   LIG    1        7.552  -3.101 -17.376  0.00  0.00    +0.332 A 
ATOM      8  O   LIG    1        7.778  -1.986 -16.633  0.00  0.00    -0.606 OA
ATOM      9  C   LIG    1        6.943  -4.207 -16.809  0.00  0.00    -0.162 A 
ATOM     10  C   LIG    1        6.723  -5.330 -17.578  0.00  0.00    +0.019 A 
ATOM     11  S   LIG    1        5.989  -6.916 -17.268  0.00  0.00    +0.107 S 
ENDROOT
BRANCH   9  12
ATOM     12  N   LIG    1        6.532  -4.184 -15.388  0.00  0.00    +0.059 N 
ATOM     13  O   LIG    1        6.969  -5.010 -14.620  0.00  0.00    -0.159 OA
ATOM     14  O   LIG    1        5.761  -3.341 -14.995  0.00  0.00    -0.156 OA
ENDBRANCH   9  12
BRANCH   1  15
ATOM     15  C   LIG    1        5.809  -8.949 -19.371  0.00  0.00    +0.561 C 
ATOM     16  O   LIG    1        6.232  -9.943 -18.812  0.00  0.00    -0.477 OA
BRANCH  15  17
ATOM     17  O   LIG    1        4.982  -9.072 -20.430  0.00  0.00    -0.347 OA
BRANCH  17  18
ATOM     18  C   LIG    1        3.595  -8.818 -20.204  0.00  0.00    +0.507 C 
BRANCH  18  19
ATOM     19  O   LIG    1        3.306  -7.451 -20.510  0.00  0.00    -0.334 OA
BRANCH  19  20
ATOM     20  C   LIG    1        2.038  -7.155 -20.837  0.00  0.00    +0.454 C 
ATOM     21  O   LIG    1        1.666  -6.007 -20.832  0.00  0.00    -0.469 OA
BRANCH  20  22
ATOM     22  C   LIG    1        1.080  -8.257 -21.210  0.00  0.00    +0.223 C 
BRANCH  22  23
ATOM     23  N   LIG    1        1.299  -8.642 -22.610  0.00  0.00    -0.625 N 
ATOM     24  H   LIG    1        2.289  -8.722 -22.786  0.00  0.00    +0.442 HD
ATOM     25  H   LIG    1        0.904  -7.940 -23.218  0.00  0.00    +0.445 HD
ATOM     26  H   LIG    1        0.854  -9.530 -22.789  0.00  0.00    +0.441 HD
ENDBRANCH  22  23
BRANCH  22  28
ATOM     27  C   LIG    1       -1.088  -7.833 -22.379  0.00  0.00    +0.051 C 
ATOM     28  C   LIG    1       -0.358  -7.763 -21.035  0.00  0.00    +0.018 C 
ATOM     29  C   LIG    1       -1.080  -8.647 -20.016  0.00  0.00    +0.064 C 
ENDBRANCH  22  28
ENDBRANCH  20  22
ENDBRANCH  19  20
ENDBRANCH  18  19
ENDBRANCH  17  18
ENDBRANCH  15  17
ENDBRANCH   1  15
BRANCH   6  30
ATOM     30  O   LIG    1        8.532  -2.053 -19.277  0.00  0.00    -0.477 OA
ATOM     31  H   LIG    1        9.106  -2.259 -20.028  0.00  0.00    +0.383 HD
ENDBRANCH   6  30
TORSDOF 10
ENDMDL
MODEL 2
REMARK VINA RESULT:      -6.2      1.676      2.640
REMARK  Name = CHEMBL1091982
REMARK                            x       y       z     vdW  Elec       q    Type
REMARK                         _______ _______ _______ _____ _____    ______ ____
ROOT
ATOM      1  C   LIG    1        6.762  -7.013 -20.244  0.00  0.00    -0.290 A 
ATOM      2  C   LIG    1        6.530  -7.172 -18.910  0.00  0.00    +0.113 A 
ATOM      3 CL   LIG    1        5.980  -8.700 -18.299  0.00  0.00    -0.030 Cl
ATOM      4  C   LIG    1        6.738  -6.094 -18.031  0.00  0.00    -0.220 A 
ATOM      5  C   LIG    1        6.554  -6.064 -16.623  0.00  0.00    +0.107 A 
ATOM      6  C   LIG    1        6.802  -4.932 -15.911  0.00  0.00    +0.026 A 
ATOM      7  C   LIG    1        7.244  -3.761 -16.536  0.00  0.00    +0.332 A 
ATOM      8  O   LIG    1        7.484  -2.642 -15.802  0.00  0.00    -0.606 OA
ATOM      9  C   LIG    1        7.435  -3.752 -17.906  0.00  0.00    -0.162 A 
ATOM     10  C   LIG    1        7.186  -4.895 -18.635  0.00  0.00    +0.019 A 
ATOM     11  S   LIG    1        7.303  -5.316 -20.355  0.00  0.00    +0.107 S 
ENDROOT
BRANCH   9  12
ATOM     12  N   LIG    1        7.903  -2.523 -18.586  0.00  0.00    +0.059 N 
ATOM     13  O   LIG    1        9.087  -2.289 -18.664  0.00  0.00    -0.159 OA
ATOM     14  O   LIG    1        7.102  -1.753 -19.062  0.00  0.00    -0.156 OA
ENDBRANCH   9  12
BRANCH   1  15
ATOM     15  C   LIG    1        6.609  -7.995 -21.320  0.00  0.00    +0.561 C 
ATOM     16  O   LIG    1        7.585  -8.375 -21.939  0.00  0.00    -0.477 OA
BRANCH  15  17
ATOM     17  O   LIG    1        5.387  -8.477 -21.626  0.00  0.00    -0.347 OA
BRANCH  17  18
ATOM     18  C   LIG    1        4.293  -7.560 -21.562  0.00  0.00    +0.507 C 
BRANCH  18  19
ATOM     19  O   LIG    1        3.378  -7.982 -20.548  0.00  0.00    -0.334 OA
BRANCH  19  20
ATOM     20  C   LIG    1        2.101  -7.587 -20.677  0.00  0.00    +0.454 C 
ATOM     21  O   LIG    1        1.818  -6.417 -20.580  0.00  0.00    -0.469 OA
BRANCH  20  22
ATOM     22  C   LIG    1        1.022  -8.604 -20.944  0.00  0.00    +0.223 C 
BRANCH  22  23
ATOM     23  N   LIG    1        1.175  -9.134 -22.305  0.00  0.00    -0.625 N 
ATOM     24  H   LIG    1        0.554  -9.920 -22.432  0.00  0.00    +0.442 HD
ATOM     25  H   LIG    1        2.129  -9.433 -22.445  0.00  0.00    +0.445 HD
ATOM     26  H   LIG    1        0.947  -8.415 -22.974  0.00  0.00    +0.441 HD
ENDBRANCH  22  23
BRANCH  22  28
ATOM     27  C   LIG    1       -1.030  -7.886 -22.176  0.00  0.00    +0.051 C 
ATOM     28  C   LIG    1       -0.350  -7.941 -20.806  0.00  0.00    +0.018 C 
ATOM     29  C   LIG    1       -1.214  -8.753 -19.840  0.00  0.00    +0.064 C 
ENDBRANCH  22  28
ENDBRANCH  20  22
ENDBRANCH  19  20
ENDBRANCH  18  19
ENDBRANCH  17  18
ENDBRANCH  15  17
ENDBRANCH   1  15
BRANCH   6  30
ATOM     30  O   LIG    1        6.614  -4.938 -14.565  0.00  0.00    -0.477 OA
ATOM     31  H   LIG    1        7.435  -4.960 -14.053  0.00  0.00    +0.383 HD
ENDBRANCH   6  30
TORSDOF 10
ENDMDL
MODEL 3
REMARK VINA RESULT:      -6.2      7.678      9.783
REMARK  Name = CHEMBL1091982
REMARK                            x       y       z     vdW  Elec       q    Type
REMARK                         _______ _______ _______ _____ _____    ______ ____
ROOT
ATOM      1  C   LIG    1       -1.925  -9.096 -22.187  0.00  0.00    -0.290 A 
ATOM      2  C   LIG    1       -0.912  -8.212 -21.960  0.00  0.00    +0.113 A 
ATOM      3 CL   LIG    1        0.136  -8.424 -20.593  0.00  0.00    -0.030 Cl
ATOM      4  C   LIG    1       -0.719  -7.129 -22.836  0.00  0.00    -0.220 A 
ATOM      5  C   LIG    1        0.271  -6.113 -22.767  0.00  0.00    +0.107 A 
ATOM      6  C   LIG    1        0.322  -5.126 -23.702  0.00  0.00    +0.026 A 
ATOM      7  C   LIG    1       -0.593  -5.075 -24.760  0.00  0.00    +0.332 A 
ATOM      8  O   LIG    1       -0.520  -4.078 -25.680  0.00  0.00    -0.606 OA
ATOM      9  C   LIG    1       -1.571  -6.048 -24.859  0.00  0.00    -0.162 A 
ATOM     10  C   LIG    1       -1.630  -7.052 -23.916  0.00  0.00    +0.019 A 
ATOM     11  S   LIG    1       -2.682  -8.461 -23.673  0.00  0.00    +0.107 S 
ENDROOT
BRANCH   9  12
ATOM     12  N   LIG    1       -2.548  -6.012 -25.970  0.00  0.00    +0.059 N 
ATOM     13  O   LIG    1       -3.551  -5.343 -25.872  0.00  0.00    -0.159 OA
ATOM     14  O   LIG    1       -2.344  -6.651 -26.976  0.00  0.00    -0.156 OA
ENDBRANCH   9  12
BRANCH   1  15
ATOM     15  C   LIG    1       -2.297 -10.278 -21.407  0.00  0.00    +0.561 C 
ATOM     16  O   LIG    1       -1.557 -11.244 -21.376  0.00  0.00    -0.477 OA
BRANCH  15  17
ATOM     17  O   LIG    1       -3.460 -10.298 -20.723  0.00  0.00    -0.347 OA
BRANCH  17  18
ATOM     18  C   LIG    1       -3.416  -9.886 -19.355  0.00  0.00    +0.507 C 
BRANCH  18  19
ATOM     19  O   LIG    1       -2.960 -10.972 -18.545  0.00  0.00    -0.334 OA
BRANCH  19  20
ATOM     20  C   LIG    1       -3.873 -11.577 -17.768  0.00  0.00    +0.454 C 
ATOM     21  O   LIG    1       -4.314 -11.007 -16.799  0.00  0.00    -0.469 OA
BRANCH  20  22
ATOM     22  C   LIG    1       -4.346 -12.967 -18.107  0.00  0.00    +0.223 C 
BRANCH  22  23
ATOM     23  N   LIG    1       -4.435 -13.766 -16.878  0.00  0.00    -0.625 N 
ATOM     24  H   LIG    1       -4.897 -14.640 -17.078  0.00  0.00    +0.442 HD
ATOM     25  H   LIG    1       -4.962 -13.258 -16.183  0.00  0.00    +0.445 HD
ATOM     26  H   LIG    1       -3.507 -13.950 -16.528  0.00  0.00    +0.441 HD
ENDBRANCH  22  23
BRANCH  22  28
ATOM     27  C   LIG    1       -3.029 -15.035 -18.585  0.00  0.00    +0.051 C 
ATOM     28  C   LIG    1       -3.356 -13.622 -19.072  0.00  0.00    +0.018 C 
ATOM     29  C   LIG    1       -3.978 -13.695 -20.468  0.00  0.00    +0.064 C 
ENDBRANCH  22  28
ENDBRANCH  20  22
ENDBRANCH  19  20
ENDBRANCH  18  19
ENDBRANCH  17  18
ENDBRANCH  15  17
ENDBRANCH   1  15
BRANCH   6  30
ATOM     30  O   LIG    1        1.283  -4.168 -23.606  0.00  0.00    -0.477 OA
ATOM     31  H   LIG    1        1.999  -4.264 -24.249  0.00  0.00    +0.383 HD
ENDBRANCH   6  30
TORSDOF 10
ENDMDL
MODEL 4
REMARK VINA RESULT:      -5.9      7.521     10.076
REMARK  Name = CHEMBL1091982
REMARK                            x       y       z     vdW  Elec       q    Type
REMARK                         _______ _______ _______ _____ _____    ______ ____
ROOT
ATOM      1  C   LIG    1       -3.050 -10.995 -21.463  0.00  0.00    -0.290 A 
ATOM      2  C   LIG    1       -3.493 -10.173 -22.457  0.00  0.00    +0.113 A 
ATOM      3 CL   LIG    1       -5.012 -10.490 -23.234  0.00  0.00    -0.030 Cl
ATOM      4  C   LIG    1       -2.716  -9.069 -22.850  0.00  0.00    -0.220 A 
ATOM      5  C   LIG    1       -3.006  -8.107 -23.856  0.00  0.00    +0.107 A 
ATOM      6  C   LIG    1       -2.142  -7.090 -24.116  0.00  0.00    +0.026 A 
ATOM      7  C   LIG    1       -0.943  -6.952 -23.409  0.00  0.00    +0.332 A 
ATOM      8  O   LIG    1       -0.096  -5.927 -23.689  0.00  0.00    -0.606 OA
ATOM      9  C   LIG    1       -0.626  -7.870 -22.422  0.00  0.00    -0.162 A 
ATOM     10  C   LIG    1       -1.497  -8.904 -22.152  0.00  0.00    +0.019 A 
ATOM     11  S   LIG    1       -1.492 -10.256 -21.002  0.00  0.00    +0.107 S 
ENDROOT
BRANCH   9  12
ATOM     12  N   LIG    1        0.637  -7.741 -21.663  0.00  0.00    +0.059 N 
ATOM     13  O   LIG    1        0.681  -7.044 -20.675  0.00  0.00    -0.159 OA
ATOM     14  O   LIG    1        1.626  -8.333 -22.029  0.00  0.00    -0.156 OA
ENDBRANCH   9  12
BRANCH   1  15
ATOM     15  C   LIG    1       -3.695 -12.186 -20.908  0.00  0.00    +0.561 C 
ATOM     16  O   LIG    1       -3.537 -13.267 -21.442  0.00  0.00    -0.477 OA
BRANCH  15  17
ATOM     17  O   LIG    1       -4.466 -12.084 -19.806  0.00  0.00    -0.347 OA
BRANCH  17  18
ATOM     18  C   LIG    1       -4.280 -13.071 -18.789  0.00  0.00    +0.507 C 
BRANCH  18  19
ATOM     19  O   LIG    1       -4.779 -12.574 -17.546  0.00  0.00    -0.334 OA
BRANCH  19  20
ATOM     20  C   LIG    1       -4.254 -11.424 -17.095  0.00  0.00    +0.454 C 
ATOM     21  O   LIG    1       -3.124 -11.118 -17.393  0.00  0.00    -0.469 OA
BRANCH  20  22
ATOM     22  C   LIG    1       -5.074 -10.514 -16.216  0.00  0.00    +0.223 C 
BRANCH  22  23
ATOM     23  N   LIG    1       -5.919 -11.322 -15.329  0.00  0.00    -0.625 N 
ATOM     24  H   LIG    1       -6.130 -10.797 -14.494  0.00  0.00    +0.442 HD
ATOM     25  H   LIG    1       -5.431 -12.170 -15.078  0.00  0.00    +0.445 HD
ATOM     26  H   LIG    1       -6.778 -11.557 -15.803  0.00  0.00    +0.441 HD
ENDBRANCH  22  23
BRANCH  22  28
ATOM     27  C   LIG    1       -7.098  -9.050 -16.246  0.00  0.00    +0.051 C 
ATOM     28  C   LIG    1       -5.958  -9.622 -17.091  0.00  0.00    +0.018 C 
ATOM     29  C   LIG    1       -5.120  -8.476 -17.660  0.00  0.00    +0.064 C 
ENDBRANCH  22  28
ENDBRANCH  20  22
ENDBRANCH  19  20
ENDBRANCH  18  19
ENDBRANCH  17  18
ENDBRANCH  15  17
ENDBRANCH   1  15
BRANCH   6  30
ATOM     30  O   LIG    1       -2.450  -6.187 -25.086  0.00  0.00    -0.477 OA
ATOM     31  H   LIG    1       -3.312  -6.333 -25.499  0.00  0.00    +0.383 HD
ENDBRANCH   6  30
TORSDOF 10
ENDMDL
MODEL 5
REMARK VINA RESULT:      -5.8     10.407     13.037
REMARK  Name = CHEMBL1091982
REMARK                            x       y       z     vdW  Elec       q    Type
REMARK                         _______ _______ _______ _____ _____    ______ ____
ROOT
ATOM      1  C   LIG    1       -2.366 -14.966 -20.968  0.00  0.00    -0.290 A 
ATOM      2  C   LIG    1       -2.884 -15.073 -19.712  0.00  0.00    +0.113 A 
ATOM      3 CL   LIG    1       -3.017 -16.630 -18.956  0.00  0.00    -0.030 Cl
ATOM      4  C   LIG    1       -3.311 -13.920 -19.030  0.00  0.00    -0.220 A 
ATOM      5  C   LIG    1       -3.873 -13.829 -17.728  0.00  0.00    +0.107 A 
ATOM      6  C   LIG    1       -4.236 -12.626 -17.209  0.00  0.00    +0.026 A 
ATOM      7  C   LIG    1       -4.073 -11.439 -17.933  0.00  0.00    +0.332 A 
ATOM      8  O   LIG    1       -4.446 -10.250 -17.391  0.00  0.00    -0.606 OA
ATOM      9  C   LIG    1       -3.530 -11.488 -19.204  0.00  0.00    -0.162 A 
ATOM     10  C   LIG    1       -3.158 -12.704 -19.738  0.00  0.00    +0.019 A 
ATOM     11  S   LIG    1       -2.436 -13.210 -21.279  0.00  0.00    +0.107 S 
ENDROOT
BRANCH   9  12
ATOM     12  N   LIG    1       -3.349 -10.245 -19.986  0.00  0.00    +0.059 N 
ATOM     13  O   LIG    1       -2.491  -9.453 -19.671  0.00  0.00    -0.159 OA
ATOM     14  O   LIG    1       -4.058 -10.021 -20.939  0.00  0.00    -0.156 OA
ENDBRANCH   9  12
BRANCH   1  15
ATOM     15  C   LIG    1       -1.868 -16.029 -21.844  0.00  0.00    +0.561 C 
ATOM     16  O   LIG    1       -0.733 -15.978 -22.278  0.00  0.00    -0.477 OA
BRANCH  15  17
ATOM     17  O   LIG    1       -2.669 -17.064 -22.171  0.00  0.00    -0.347 OA
BRANCH  17  18
ATOM     18  C   LIG    1       -3.099 -17.148 -23.531  0.00  0.00    +0.507 C 
BRANCH  18  19
ATOM     19  O   LIG    1       -4.414 -16.599 -23.650  0.00  0.00    -0.334 OA
BRANCH  19  20
ATOM     20  C   LIG    1       -5.444 -17.440 -23.471  0.00  0.00    +0.454 C 
ATOM     21  O   LIG    1       -6.576 -17.052 -23.634  0.00  0.00    -0.469 OA
BRANCH  20  22
ATOM     22  C   LIG    1       -5.188 -18.870 -23.068  0.00  0.00    +0.223 C 
BRANCH  22  23
ATOM     23  N   LIG    1       -5.646 -19.769 -24.134  0.00  0.00    -0.625 N 
ATOM     24  H   LIG    1       -6.153 -20.541 -23.728  0.00  0.00    +0.442 HD
ATOM     25  H   LIG    1       -4.849 -20.120 -24.644  0.00  0.00    +0.445 HD
ATOM     26  H   LIG    1       -6.252 -19.264 -24.763  0.00  0.00    +0.441 HD
ENDBRANCH  22  23
BRANCH  22  28
ATOM     27  C   LIG    1       -6.706 -20.499 -21.935  0.00  0.00    +0.051 C 
ATOM     28  C   LIG    1       -5.948 -19.179 -21.776  0.00  0.00    +0.018 C 
ATOM     29  C   LIG    1       -4.956 -19.297 -20.617  0.00  0.00    +0.064 C 
ENDBRANCH  22  28
ENDBRANCH  20  22
ENDBRANCH  19  20
ENDBRANCH  18  19
ENDBRANCH  17  18
ENDBRANCH  15  17
ENDBRANCH   1  15
BRANCH   6  30
ATOM     30  O   LIG    1       -4.772 -12.575 -15.960  0.00  0.00    -0.477 OA
ATOM     31  H   LIG    1       -4.171 -12.222 -15.288  0.00  0.00    +0.383 HD
ENDBRANCH   6  30
TORSDOF 10
ENDMDL
MODEL 6
REMARK VINA RESULT:      -5.7      5.203     10.245
REMARK  Name = CHEMBL1091982
REMARK                            x       y       z     vdW  Elec       q    Type
REMARK                         _______ _______ _______ _____ _____    ______ ____
ROOT
ATOM      1  C   LIG    1       -0.663 -10.064 -22.138  0.00  0.00    -0.290 A 
ATOM      2  C   LIG    1       -1.287  -9.465 -21.085  0.00  0.00    +0.113 A 
ATOM      3 CL   LIG    1       -0.949  -7.807 -20.703  0.00  0.00    -0.030 Cl
ATOM      4  C   LIG    1       -2.204 -10.195 -20.308  0.00  0.00    -0.220 A 
ATOM      5  C   LIG    1       -2.948  -9.750 -19.182  0.00  0.00    +0.107 A 
ATOM      6  C   LIG    1       -3.802 -10.588 -18.535  0.00  0.00    +0.026 A 
ATOM      7  C   LIG    1       -3.979 -11.912 -18.952  0.00  0.00    +0.332 A 
ATOM      8  O   LIG    1       -4.839 -12.730 -18.289  0.00  0.00    -0.606 OA
ATOM      9  C   LIG    1       -3.272 -12.381 -20.045  0.00  0.00    -0.162 A 
ATOM     10  C   LIG    1       -2.405 -11.538 -20.706  0.00  0.00    +0.019 A 
ATOM     11  S   LIG    1       -1.338 -11.716 -22.114  0.00  0.00    +0.107 S 
ENDROOT
BRANCH   9  12
ATOM     12  N   LIG    1       -3.446 -13.778 -20.502  0.00  0.00    +0.059 N 
ATOM     13  O   LIG    1       -4.296 -14.045 -21.321  0.00  0.00    -0.159 OA
ATOM     14  O   LIG    1       -2.740 -14.652 -20.057  0.00  0.00    -0.156 OA
ENDBRANCH   9  12
BRANCH   1  15
ATOM     15  C   LIG    1        0.316  -9.492 -23.065  0.00  0.00    +0.561 C 
ATOM     16  O   LIG    1        0.169  -9.627 -24.264  0.00  0.00    -0.477 OA
BRANCH  15  17
ATOM     17  O   LIG    1        1.382  -8.816 -22.588  0.00  0.00    -0.347 OA
BRANCH  17  18
ATOM     18  C   LIG    1        2.268  -9.528 -21.722  0.00  0.00    +0.507 C 
BRANCH  18  19
ATOM     19  O   LIG    1        2.288  -8.898 -20.439  0.00  0.00    -0.334 OA
BRANCH  19  20
ATOM     20  C   LIG    1        3.119  -7.856 -20.284  0.00  0.00    +0.454 C 
ATOM     21  O   LIG    1        2.707  -6.729 -20.426  0.00  0.00    -0.469 OA
BRANCH  20  22
ATOM     22  C   LIG    1        4.565  -8.091 -19.933  0.00  0.00    +0.223 C 
BRANCH  22  23
ATOM     23  N   LIG    1        4.662  -9.199 -18.974  0.00  0.00    -0.625 N 
ATOM     24  H   LIG    1        4.136  -8.972 -18.144  0.00  0.00    +0.442 HD
ATOM     25  H   LIG    1        5.630  -9.348 -18.729  0.00  0.00    +0.445 HD
ATOM     26  H   LIG    1        4.288 -10.038 -19.390  0.00  0.00    +0.441 HD
ENDBRANCH  22  23
BRANCH  22  28
ATOM     27  C   LIG    1        5.653  -7.135 -17.897  0.00  0.00    +0.051 C 
ATOM     28  C   LIG    1        5.152  -6.823 -19.309  0.00  0.00    +0.018 C 
ATOM     29  C   LIG    1        6.317  -6.326 -20.166  0.00  0.00    +0.064 C 
ENDBRANCH  22  28
ENDBRANCH  20  22
ENDBRANCH  19  20
ENDBRANCH  18  19
ENDBRANCH  17  18
ENDBRANCH  15  17
ENDBRANCH   1  15
BRANCH   6  30
ATOM     30  O   LIG    1       -4.497 -10.130 -17.460  0.00  0.00    -0.477 OA
ATOM     31  H   LIG    1       -5.453 -10.265 -17.523  0.00  0.00    +0.383 HD
ENDBRANCH   6  30
TORSDOF 10
ENDMDL
MODEL 7
REMARK VINA RESULT:      -5.6      6.645      9.713
REMARK  Name = CHEMBL1091982
REMARK                            x       y       z     vdW  Elec       q    Type
REMARK                         _______ _______ _______ _____ _____    ______ ____
ROOT
ATOM      1  C   LIG    1       -2.559  -9.683 -20.042  0.00  0.00    -0.290 A 
ATOM      2  C   LIG    1       -2.672  -9.656 -21.400  0.00  0.00    +0.113 A 
ATOM      3 CL   LIG    1       -4.046 -10.380 -22.174  0.00  0.00    -0.030 Cl
ATOM      4  C   LIG    1       -1.672  -9.039 -22.173  0.00  0.00    -0.220 A 
ATOM      5  C   LIG    1       -1.611  -8.910 -23.587  0.00  0.00    +0.107 A 
ATOM      6  C   LIG    1       -0.565  -8.280 -24.185  0.00  0.00    +0.026 A 
ATOM      7  C   LIG    1        0.485  -7.737 -23.435  0.00  0.00    +0.332 A 
ATOM      8  O   LIG    1        1.519  -7.113 -24.058  0.00  0.00    -0.606 OA
ATOM      9  C   LIG    1        0.461  -7.844 -22.056  0.00  0.00    -0.162 A 
ATOM     10  C   LIG    1       -0.596  -8.481 -21.442  0.00  0.00    +0.019 A 
ATOM     11  S   LIG    1       -1.021  -8.825 -19.753  0.00  0.00    +0.107 S 
ENDROOT
BRANCH   9  12
ATOM     12  N   LIG    1        1.561  -7.277 -21.246  0.00  0.00    +0.059 N 
ATOM     13  O   LIG    1        1.462  -6.162 -20.787  0.00  0.00    -0.159 OA
ATOM     14  O   LIG    1        2.560  -7.927 -21.042  0.00  0.00    -0.156 OA
ENDBRANCH   9  12
BRANCH   1  15
ATOM     15  C   LIG    1       -3.477 -10.268 -19.062  0.00  0.00    +0.561 C 
ATOM     16  O   LIG    1       -3.130 -11.230 -18.403  0.00  0.00    -0.477 OA
BRANCH  15  17
ATOM     17  O   LIG    1       -4.707  -9.741 -18.890  0.00  0.00    -0.347 OA
BRANCH  17  18
ATOM     18  C   LIG    1       -4.947  -9.039 -17.668  0.00  0.00    +0.507 C 
BRANCH  18  19
ATOM     19  O   LIG    1       -5.559  -7.779 -17.955  0.00  0.00    -0.334 OA
BRANCH  19  20
ATOM     20  C   LIG    1       -6.789  -7.572 -17.458  0.00  0.00    +0.454 C 
ATOM     21  O   LIG    1       -7.414  -8.493 -16.991  0.00  0.00    -0.469 OA
BRANCH  20  22
ATOM     22  C   LIG    1       -7.388  -6.190 -17.484  0.00  0.00    +0.223 C 
BRANCH  22  23
ATOM     23  N   LIG    1       -8.672  -6.199 -16.771  0.00  0.00    -0.625 N 
ATOM     24  H   LIG    1       -9.333  -5.617 -17.262  0.00  0.00    +0.442 HD
ATOM     25  H   LIG    1       -8.540  -5.845 -15.835  0.00  0.00    +0.445 HD
ATOM     26  H   LIG    1       -9.025  -7.143 -16.726  0.00  0.00    +0.441 HD
ENDBRANCH  22  23
BRANCH  22  28
ATOM     27  C   LIG    1       -9.108  -5.544 -19.177  0.00  0.00    +0.051 C 
ATOM     28  C   LIG    1       -7.612  -5.758 -18.934  0.00  0.00    +0.018 C 
ATOM     29  C   LIG    1       -6.861  -4.452 -19.200  0.00  0.00    +0.064 C 
ENDBRANCH  22  28
ENDBRANCH  20  22
ENDBRANCH  19  20
ENDBRANCH  18  19
ENDBRANCH  17  18
ENDBRANCH  15  17
ENDBRANCH   1  15
BRANCH   6  30
ATOM     30  O   LIG    1       -0.539  -8.175 -25.540  0.00  0.00    -0.477 OA
ATOM     31  H   LIG    1       -1.398  -7.976 -25.937  0.00  0.00    +0.383 HD
ENDBRANCH   6  30
TORSDOF 10
ENDMDL
MODEL 8
REMARK VINA RESULT:      -5.5      7.727     10.941
REMARK  Name = CHEMBL1091982
REMARK                            x       y       z     vdW  Elec       q    Type
REMARK                         _______ _______ _______ _____ _____    ______ ____
ROOT
ATOM      1  C   LIG    1       -3.182 -12.061 -21.706  0.00  0.00    -0.290 A 
ATOM      2  C   LIG    1       -3.204 -13.071 -20.790  0.00  0.00    +0.113 A 
ATOM      3 CL   LIG    1       -2.706 -14.669 -21.248  0.00  0.00    -0.030 Cl
ATOM      4  C   LIG    1       -3.630 -12.814 -19.475  0.00  0.00    -0.220 A 
ATOM      5  C   LIG    1       -3.721 -13.727 -18.390  0.00  0.00    +0.107 A 
ATOM      6  C   LIG    1       -4.156 -13.316 -17.169  0.00  0.00    +0.026 A 
ATOM      7  C   LIG    1       -4.530 -11.987 -16.937  0.00  0.00    +0.332 A 
ATOM      8  O   LIG    1       -4.962 -11.602 -15.707  0.00  0.00    -0.606 OA
ATOM      9  C   LIG    1       -4.454 -11.070 -17.970  0.00  0.00    -0.162 A 
ATOM     10  C   LIG    1       -4.014 -11.478 -19.211  0.00  0.00    +0.019 A 
ATOM     11  S   LIG    1       -3.761 -10.659 -20.765  0.00  0.00    +0.107 S 
ENDROOT
BRANCH   9  12
ATOM     12  N   LIG    1       -4.844  -9.660 -17.745  0.00  0.00    +0.059 N 
ATOM     13  O   LIG    1       -4.081  -8.768 -18.038  0.00  0.00    -0.159 OA
ATOM     14  O   LIG    1       -5.924  -9.400 -17.267  0.00  0.00    -0.156 OA
ENDBRANCH   9  12
BRANCH   1  15
ATOM     15  C   LIG    1       -2.779 -12.113 -23.113  0.00  0.00    +0.561 C 
ATOM     16  O   LIG    1       -3.538 -11.718 -23.977  0.00  0.00    -0.477 OA
BRANCH  15  17
ATOM     17  O   LIG    1       -1.567 -12.599 -23.450  0.00  0.00    -0.347 OA
BRANCH  17  18
ATOM     18  C   LIG    1       -0.603 -11.662 -23.935  0.00  0.00    +0.507 C 
BRANCH  18  19
ATOM     19  O   LIG    1       -0.365 -10.665 -22.939  0.00  0.00    -0.334 OA
BRANCH  19  20
ATOM     20  C   LIG    1       -0.192  -9.405 -23.367  0.00  0.00    +0.454 C 
ATOM     21  O   LIG    1       -0.860  -8.980 -24.279  0.00  0.00    -0.469 OA
BRANCH  20  22
ATOM     22  C   LIG    1        0.836  -8.520 -22.710  0.00  0.00    +0.223 C 
BRANCH  22  23
ATOM     23  N   LIG    1        1.629  -9.312 -21.761  0.00  0.00    -0.625 N 
ATOM     24  H   LIG    1        2.596  -9.312 -22.049  0.00  0.00    +0.442 HD
ATOM     25  H   LIG    1        1.284 -10.261 -21.744  0.00  0.00    +0.445 HD
ATOM     26  H   LIG    1        1.552  -8.910 -20.840  0.00  0.00    +0.441 HD
ENDBRANCH  22  23
BRANCH  22  28
ATOM     27  C   LIG    1       -0.593  -7.954 -20.740  0.00  0.00    +0.051 C 
ATOM     28  C   LIG    1        0.130  -7.386 -21.963  0.00  0.00    +0.018 C 
ATOM     29  C   LIG    1        1.164  -6.353 -21.511  0.00  0.00    +0.064 C 
ENDBRANCH  22  28
ENDBRANCH  20  22
ENDBRANCH  19  20
ENDBRANCH  18  19
ENDBRANCH  17  18
ENDBRANCH  15  17
ENDBRANCH   1  15
BRANCH   6  30
ATOM     30  O   LIG    1       -4.233 -14.215 -16.152  0.00  0.00    -0.477 OA
ATOM     31  H   LIG    1       -3.373 -14.538 -15.847  0.00  0.00    +0.383 HD
ENDBRANCH   6  30
TORSDOF 10
ENDMDL
MODEL 9
REMARK VINA RESULT:      -5.4      8.026     11.331
REMARK  Name = CHEMBL1091982
REMARK                            x       y       z     vdW  Elec       q    Type
REMARK                         _______ _______ _______ _____ _____    ______ ____
ROOT
ATOM      1  C   LIG    1       -3.240 -12.547 -22.673  0.00  0.00    -0.290 A 
ATOM      2  C   LIG    1       -3.641 -11.736 -21.654  0.00  0.00    +0.113 A 
ATOM      3 CL   LIG    1       -4.120 -10.100 -21.981  0.00  0.00    -0.030 Cl
ATOM      4  C   LIG    1       -3.666 -12.227 -20.337  0.00  0.00    -0.220 A 
ATOM      5  C   LIG    1       -4.050 -11.542 -19.153  0.00  0.00    +0.107 A 
ATOM      6  C   LIG    1       -4.017 -12.167 -17.945  0.00  0.00    +0.026 A 
ATOM      7  C   LIG    1       -3.606 -13.499 -17.823  0.00  0.00    +0.332 A 
ATOM      8  O   LIG    1       -3.582 -14.099 -16.604  0.00  0.00    -0.606 OA
ATOM      9  C   LIG    1       -3.225 -14.198 -18.955  0.00  0.00    -0.162 A 
ATOM     10  C   LIG    1       -3.255 -13.573 -20.183  0.00  0.00    +0.019 A 
ATOM     11  S   LIG    1       -2.871 -14.081 -21.840  0.00  0.00    +0.107 S 
ENDROOT
BRANCH   9  12
ATOM     12  N   LIG    1       -2.787 -15.608 -18.847  0.00  0.00    +0.059 N 
ATOM     13  O   LIG    1       -1.677 -15.867 -18.441  0.00  0.00    -0.159 OA
ATOM     14  O   LIG    1       -3.538 -16.500 -19.164  0.00  0.00    -0.156 OA
ENDBRANCH   9  12
BRANCH   1  15
ATOM     15  C   LIG    1       -3.140 -12.237 -24.101  0.00  0.00    +0.561 C 
ATOM     16  O   LIG    1       -3.815 -12.851 -24.905  0.00  0.00    -0.477 OA
BRANCH  15  17
ATOM     17  O   LIG    1       -2.299 -11.271 -24.526  0.00  0.00    -0.347 OA
BRANCH  17  18
ATOM     18  C   LIG    1       -0.951 -11.330 -24.055  0.00  0.00    +0.507 C 
BRANCH  18  19
ATOM     19  O   LIG    1       -0.647 -10.135 -23.333  0.00  0.00    -0.334 OA
BRANCH  19  20
ATOM     20  C   LIG    1       -0.010 -10.278 -22.160  0.00  0.00    +0.454 C 
ATOM     21  O   LIG    1       -0.093 -11.317 -21.550  0.00  0.00    -0.469 OA
BRANCH  20  22
ATOM     22  C   LIG    1        0.810  -9.141 -21.604  0.00  0.00    +0.223 C 
BRANCH  22  23
ATOM     23  N   LIG    1        1.671  -9.641 -20.525  0.00  0.00    -0.625 N 
ATOM     24  H   LIG    1        1.233  -9.462 -19.635  0.00  0.00    +0.442 HD
ATOM     25  H   LIG    1        2.563  -9.170 -20.562  0.00  0.00    +0.445 HD
ATOM     26  H   LIG    1        1.811 -10.634 -20.638  0.00  0.00    +0.441 HD
ENDBRANCH  22  23
BRANCH  22  28
ATOM     27  C   LIG    1       -0.795  -7.327 -22.216  0.00  0.00    +0.051 C 
ATOM     28  C   LIG    1       -0.124  -8.061 -21.054  0.00  0.00    +0.018 C 
ATOM     29  C   LIG    1       -1.194  -8.712 -20.175  0.00  0.00    +0.064 C 
ENDBRANCH  22  28
ENDBRANCH  20  22
ENDBRANCH  19  20
ENDBRANCH  18  19
ENDBRANCH  17  18
ENDBRANCH  15  17
ENDBRANCH   1  15
BRANCH   6  30
ATOM     30  O   LIG    1       -4.390 -11.481 -16.831  0.00  0.00    -0.477 OA
ATOM     31  H   LIG    1       -3.675 -10.975 -16.422  0.00  0.00    +0.383 HD
ENDBRANCH   6  30
TORSDOF 10
ENDMDL
