MODEL 1
REMARK VINA RESULT:      -5.7      0.000      0.000
REMARK  Name = CHEMBL168389
REMARK                            x       y       z     vdW  Elec       q    Type
REMARK                         _______ _______ _______ _____ _____    ______ ____
ROOT
ATOM      1  C   LIG    1       -3.434 -11.519 -19.222  0.00  0.00    -0.239 A 
ATOM      2  C   LIG    1       -4.085 -10.344 -18.820  0.00  0.00    +0.185 A 
ATOM      3  C   LIG    1       -4.779 -10.315 -17.632  0.00  0.00    -0.196 A 
ATOM      4  C   LIG    1       -4.837 -11.448 -16.828  0.00  0.00    +0.308 A 
ATOM      5  O   LIG    1       -5.523 -11.412 -15.657  0.00  0.00    -0.598 OA
ATOM      6  C   LIG    1       -4.192 -12.621 -17.221  0.00  0.00    -0.012 A 
ATOM      7  C   LIG    1       -3.498 -12.662 -18.413  0.00  0.00    +0.081 A 
ENDROOT
BRANCH   3   8
ATOM      8  N   LIG    1       -5.466  -9.075 -17.208  0.00  0.00    +0.068 N 
ATOM      9  O   LIG    1       -4.941  -8.001 -17.389  0.00  0.00    -0.153 OA
ATOM     10  O   LIG    1       -6.552  -9.135 -16.680  0.00  0.00    -0.245 OA
ENDBRANCH   3   8
BRANCH   1  12
ATOM     11  C   LIG    1       -3.265 -12.128 -21.602  0.00  0.00    -0.203 C 
ATOM     12  C   LIG    1       -2.695 -11.554 -20.486  0.00  0.00    +0.286 C 
BRANCH  11  15
ATOM     13  C   LIG    1       -0.809 -13.548 -24.118  0.00  0.00    +0.289 C 
ATOM     14  N   LIG    1       -1.694 -13.415 -22.958  0.00  0.00    -0.622 N 
ATOM     15  C   LIG    1       -2.464 -12.317 -22.821  0.00  0.00    +0.583 C 
ATOM     16  O   LIG    1       -2.496 -11.483 -23.706  0.00  0.00    -0.539 OA
ATOM     17  C   LIG    1       -1.743 -14.474 -21.948  0.00  0.00    +0.280 C 
ENDBRANCH  11  15
BRANCH  11  18
ATOM     18  C   LIG    1       -4.636 -12.542 -21.573  0.00  0.00    +0.276 C 
ATOM     19  N   LIG    1       -5.723 -12.870 -21.550  0.00  0.00    -0.443 NA
ENDBRANCH  11  18
ENDBRANCH   1  12
BRANCH   6  20
ATOM     20  O   LIG    1       -4.251 -13.726 -16.430  0.00  0.00    -0.479 OA
ATOM     21  H   LIG    1       -4.995 -13.727 -15.812  0.00  0.00    +0.372 HD
ENDBRANCH   6  20
TORSDOF 5
ENDMDL
MODEL 2
REMARK VINA RESULT:      -5.6      2.919      3.784
REMARK  Name = CHEMBL168389
REMARK                            x       y       z     vdW  Elec       q    Type
REMARK                         _______ _______ _______ _____ _____    ______ ____
ROOT
ATOM      1  C   LIG    1       -3.409 -13.899 -18.391  0.00  0.00    -0.239 A 
ATOM      2  C   LIG    1       -3.137 -12.833 -19.261  0.00  0.00    +0.185 A 
ATOM      3  C   LIG    1       -3.533 -11.558 -18.930  0.00  0.00    -0.196 A 
ATOM      4  C   LIG    1       -4.202 -11.322 -17.735  0.00  0.00    +0.308 A 
ATOM      5  O   LIG    1       -4.589 -10.060 -17.414  0.00  0.00    -0.598 OA
ATOM      6  C   LIG    1       -4.477 -12.376 -16.863  0.00  0.00    -0.012 A 
ATOM      7  C   LIG    1       -4.089 -13.659 -17.188  0.00  0.00    +0.081 A 
ENDROOT
BRANCH   3   8
ATOM      8  N   LIG    1       -3.246 -10.434 -19.849  0.00  0.00    +0.068 N 
ATOM      9  O   LIG    1       -2.318  -9.693 -19.625  0.00  0.00    -0.153 OA
ATOM     10  O   LIG    1       -3.940 -10.258 -20.824  0.00  0.00    -0.245 OA
ENDBRANCH   3   8
BRANCH   1  12
ATOM     11  C   LIG    1       -3.288 -15.774 -19.983  0.00  0.00    -0.203 C 
ATOM     12  C   LIG    1       -2.989 -15.258 -18.740  0.00  0.00    +0.286 C 
BRANCH  11  15
ATOM     13  C   LIG    1       -1.549 -18.966 -21.060  0.00  0.00    +0.289 C 
ATOM     14  N   LIG    1       -1.788 -17.578 -20.658  0.00  0.00    -0.622 N 
ATOM     15  C   LIG    1       -3.020 -17.190 -20.275  0.00  0.00    +0.583 C 
ATOM     16  O   LIG    1       -3.911 -18.012 -20.172  0.00  0.00    -0.539 OA
ATOM     17  C   LIG    1       -0.687 -16.611 -20.671  0.00  0.00    +0.280 C 
ENDBRANCH  11  15
BRANCH  11  18
ATOM     18  C   LIG    1       -3.860 -14.930 -20.989  0.00  0.00    +0.276 C 
ATOM     19  N   LIG    1       -4.313 -14.260 -21.787  0.00  0.00    -0.443 NA
ENDBRANCH  11  18
ENDBRANCH   1  12
BRANCH   6  20
ATOM     20  O   LIG    1       -5.130 -12.139 -15.695  0.00  0.00    -0.479 OA
ATOM     21  H   LIG    1       -4.631 -11.597 -15.068  0.00  0.00    +0.372 HD
ENDBRANCH   6  20
TORSDOF 5
ENDMDL
MODEL 3
REMARK VINA RESULT:      -5.5      1.579      2.020
REMARK  Name = CHEMBL168389
REMARK                            x       y       z     vdW  Elec       q    Type
REMARK                         _______ _______ _______ _____ _____    ______ ____
ROOT
ATOM      1  C   LIG    1       -3.864 -11.797 -19.383  0.00  0.00    -0.239 A 
ATOM      2  C   LIG    1       -4.430 -10.601 -18.920  0.00  0.00    +0.185 A 
ATOM      3  C   LIG    1       -4.872 -10.507 -17.620  0.00  0.00    -0.196 A 
ATOM      4  C   LIG    1       -4.757 -11.595 -16.763  0.00  0.00    +0.308 A 
ATOM      5  O   LIG    1       -5.193 -11.496 -15.481  0.00  0.00    -0.598 OA
ATOM      6  C   LIG    1       -4.194 -12.789 -17.215  0.00  0.00    -0.012 A 
ATOM      7  C   LIG    1       -3.754 -12.895 -18.519  0.00  0.00    +0.081 A 
ENDROOT
BRANCH   3   8
ATOM      8  N   LIG    1       -5.469  -9.244 -17.132  0.00  0.00    +0.068 N 
ATOM      9  O   LIG    1       -6.524  -9.262 -16.543  0.00  0.00    -0.153 OA
ATOM     10  O   LIG    1       -4.901  -8.194 -17.323  0.00  0.00    -0.245 OA
ENDBRANCH   3   8
BRANCH   1  12
ATOM     11  C   LIG    1       -2.457 -11.009 -21.244  0.00  0.00    -0.203 C 
ATOM     12  C   LIG    1       -3.393 -11.900 -20.766  0.00  0.00    +0.286 C 
BRANCH  11  15
ATOM     13  C   LIG    1       -0.578 -11.500 -24.501  0.00  0.00    +0.289 C 
ATOM     14  N   LIG    1       -0.983 -11.605 -23.097  0.00  0.00    -0.622 N 
ATOM     15  C   LIG    1       -2.111 -11.002 -22.674  0.00  0.00    +0.583 C 
ATOM     16  O   LIG    1       -2.843 -10.451 -23.475  0.00  0.00    -0.539 OA
ATOM     17  C   LIG    1       -0.162 -12.367 -22.152  0.00  0.00    +0.280 C 
ENDBRANCH  11  15
BRANCH  11  18
ATOM     18  C   LIG    1       -1.822 -10.089 -20.349  0.00  0.00    +0.276 C 
ATOM     19  N   LIG    1       -1.318  -9.360 -19.638  0.00  0.00    -0.443 NA
ENDBRANCH  11  18
ENDBRANCH   1  12
BRANCH   6  20
ATOM     20  O   LIG    1       -4.083 -13.850 -16.372  0.00  0.00    -0.479 OA
ATOM     21  H   LIG    1       -4.150 -14.709 -16.811  0.00  0.00    +0.372 HD
ENDBRANCH   6  20
TORSDOF 5
ENDMDL
MODEL 4
REMARK VINA RESULT:      -5.3      4.071      5.183
REMARK  Name = CHEMBL168389
REMARK                            x       y       z     vdW  Elec       q    Type
REMARK                         _______ _______ _______ _____ _____    ______ ____
ROOT
ATOM      1  C   LIG    1       -2.142  -9.445 -20.844  0.00  0.00    -0.239 A 
ATOM      2  C   LIG    1       -2.528  -9.704 -19.521  0.00  0.00    +0.185 A 
ATOM      3  C   LIG    1       -3.416 -10.721 -19.251  0.00  0.00    -0.196 A 
ATOM      4  C   LIG    1       -3.931 -11.492 -20.286  0.00  0.00    +0.308 A 
ATOM      5  O   LIG    1       -4.805 -12.494 -20.012  0.00  0.00    -0.598 OA
ATOM      6  C   LIG    1       -3.552 -11.241 -21.605  0.00  0.00    -0.012 A 
ATOM      7  C   LIG    1       -2.668 -10.220 -21.887  0.00  0.00    +0.081 A 
ENDROOT
BRANCH   3   8
ATOM      8  N   LIG    1       -3.823 -10.994 -17.854  0.00  0.00    +0.068 N 
ATOM      9  O   LIG    1       -3.380 -11.957 -17.273  0.00  0.00    -0.153 OA
ATOM     10  O   LIG    1       -4.599 -10.254 -17.295  0.00  0.00    -0.245 OA
ENDBRANCH   3   8
BRANCH   1  12
ATOM     11  C   LIG    1        0.126  -8.653 -21.382  0.00  0.00    -0.203 C 
ATOM     12  C   LIG    1       -1.198  -8.363 -21.135  0.00  0.00    +0.286 C 
BRANCH  11  15
ATOM     13  C   LIG    1        2.508  -6.095 -22.854  0.00  0.00    +0.289 C 
ATOM     14  N   LIG    1        1.449  -7.099 -22.723  0.00  0.00    -0.622 N 
ATOM     15  C   LIG    1        1.106  -7.563 -21.505  0.00  0.00    +0.583 C 
ATOM     16  O   LIG    1        1.608  -7.080 -20.508  0.00  0.00    -0.539 OA
ATOM     17  C   LIG    1        0.761  -7.598 -23.917  0.00  0.00    +0.280 C 
ENDBRANCH  11  15
BRANCH  11  18
ATOM     18  C   LIG    1        0.548 -10.014 -21.519  0.00  0.00    +0.276 C 
ATOM     19  N   LIG    1        0.882 -11.095 -21.627  0.00  0.00    -0.443 NA
ENDBRANCH  11  18
ENDBRANCH   1  12
BRANCH   6  20
ATOM     20  O   LIG    1       -4.059 -11.999 -22.613  0.00  0.00    -0.479 OA
ATOM     21  H   LIG    1       -4.758 -11.564 -23.119  0.00  0.00    +0.372 HD
ENDBRANCH   6  20
TORSDOF 5
ENDMDL
MODEL 5
REMARK VINA RESULT:      -5.2     11.740     12.671
REMARK  Name = CHEMBL168389
REMARK                            x       y       z     vdW  Elec       q    Type
REMARK                         _______ _______ _______ _____ _____    ______ ____
ROOT
ATOM      1  C   LIG    1        7.370  -6.119 -17.825  0.00  0.00    -0.239 A 
ATOM      2  C   LIG    1        7.711  -5.003 -18.603  0.00  0.00    +0.185 A 
ATOM      3  C   LIG    1        7.545  -3.735 -18.094  0.00  0.00    -0.196 A 
ATOM      4  C   LIG    1        7.042  -3.557 -16.811  0.00  0.00    +0.308 A 
ATOM      5  O   LIG    1        6.882  -2.303 -16.315  0.00  0.00    -0.598 OA
ATOM      6  C   LIG    1        6.700  -4.662 -16.031  0.00  0.00    -0.012 A 
ATOM      7  C   LIG    1        6.856  -5.937 -16.534  0.00  0.00    +0.081 A 
ENDROOT
BRANCH   3   8
ATOM      8  N   LIG    1        7.906  -2.558 -18.915  0.00  0.00    +0.068 N 
ATOM      9  O   LIG    1        7.091  -2.069 -19.662  0.00  0.00    -0.153 OA
ATOM     10  O   LIG    1        9.016  -2.085 -18.838  0.00  0.00    -0.245 OA
ENDBRANCH   3   8
BRANCH   1  12
ATOM     11  C   LIG    1        6.520  -8.068 -19.068  0.00  0.00    -0.203 C 
ATOM     12  C   LIG    1        7.544  -7.471 -18.364  0.00  0.00    +0.286 C 
BRANCH  11  15
ATOM     13  C   LIG    1        7.047 -11.207 -21.129  0.00  0.00    +0.289 C 
ATOM     14  N   LIG    1        7.051  -9.807 -20.698  0.00  0.00    -0.622 N 
ATOM     15  C   LIG    1        6.627  -9.482 -19.461  0.00  0.00    +0.583 C 
ATOM     16  O   LIG    1        6.331 -10.357 -18.670  0.00  0.00    -0.539 OA
ATOM     17  C   LIG    1        7.517  -8.760 -21.611  0.00  0.00    +0.280 C 
ENDBRANCH  11  15
BRANCH  11  18
ATOM     18  C   LIG    1        5.354  -7.314 -19.415  0.00  0.00    +0.276 C 
ATOM     19  N   LIG    1        4.429  -6.715 -19.691  0.00  0.00    -0.443 NA
ENDBRANCH  11  18
ENDBRANCH   1  12
BRANCH   6  20
ATOM     20  O   LIG    1        6.209  -4.482 -14.776  0.00  0.00    -0.479 OA
ATOM     21  H   LIG    1        5.989  -3.563 -14.568  0.00  0.00    +0.372 HD
ENDBRANCH   6  20
TORSDOF 5
ENDMDL
MODEL 6
REMARK VINA RESULT:      -5.0      3.314      7.155
REMARK  Name = CHEMBL168389
REMARK                            x       y       z     vdW  Elec       q    Type
REMARK                         _______ _______ _______ _____ _____    ______ ____
ROOT
ATOM      1  C   LIG    1       -1.044  -9.193 -20.651  0.00  0.00    -0.239 A 
ATOM      2  C   LIG    1       -0.214 -10.249 -21.055  0.00  0.00    +0.185 A 
ATOM      3  C   LIG    1        0.558 -10.122 -22.187  0.00  0.00    -0.196 A 
ATOM      4  C   LIG    1        0.518  -8.950 -22.932  0.00  0.00    +0.308 A 
ATOM      5  O   LIG    1        1.283  -8.831 -24.047  0.00  0.00    -0.598 OA
ATOM      6  C   LIG    1       -0.304  -7.894 -22.538  0.00  0.00    -0.012 A 
ATOM      7  C   LIG    1       -1.086  -8.013 -21.408  0.00  0.00    +0.081 A 
ENDROOT
BRANCH   3   8
ATOM      8  N   LIG    1        1.433 -11.237 -22.612  0.00  0.00    +0.068 N 
ATOM      9  O   LIG    1        2.565 -11.310 -22.196  0.00  0.00    -0.153 OA
ATOM     10  O   LIG    1        1.015 -12.076 -23.377  0.00  0.00    -0.245 OA
ENDBRANCH   3   8
BRANCH   1  12
ATOM     11  C   LIG    1       -3.148  -9.826 -19.540  0.00  0.00    -0.203 C 
ATOM     12  C   LIG    1       -1.867  -9.325 -19.447  0.00  0.00    +0.286 C 
BRANCH  11  15
ATOM     13  C   LIG    1       -5.275 -10.937 -16.604  0.00  0.00    +0.289 C 
ATOM     14  N   LIG    1       -4.304 -10.941 -17.701  0.00  0.00    -0.622 N 
ATOM     15  C   LIG    1       -4.034  -9.801 -18.366  0.00  0.00    +0.583 C 
ATOM     16  O   LIG    1       -4.524  -8.751 -17.996  0.00  0.00    -0.539 OA
ATOM     17  C   LIG    1       -3.624 -12.184 -18.073  0.00  0.00    +0.280 C 
ENDBRANCH  11  15
BRANCH  11  18
ATOM     18  C   LIG    1       -3.615 -10.372 -20.779  0.00  0.00    +0.276 C 
ATOM     19  N   LIG    1       -3.986 -10.805 -21.761  0.00  0.00    -0.443 NA
ENDBRANCH  11  18
ENDBRANCH   1  12
BRANCH   6  20
ATOM     20  O   LIG    1       -0.338  -6.749 -23.270  0.00  0.00    -0.479 OA
ATOM     21  H   LIG    1        0.402  -6.654 -23.885  0.00  0.00    +0.372 HD
ENDBRANCH   6  20
TORSDOF 5
ENDMDL
MODEL 7
REMARK VINA RESULT:      -5.0      3.741      4.788
REMARK  Name = CHEMBL168389
REMARK                            x       y       z     vdW  Elec       q    Type
REMARK                         _______ _______ _______ _____ _____    ______ ____
ROOT
ATOM      1  C   LIG    1       -2.876 -14.971 -19.161  0.00  0.00    -0.239 A 
ATOM      2  C   LIG    1       -2.826 -13.920 -20.088  0.00  0.00    +0.185 A 
ATOM      3  C   LIG    1       -3.344 -12.689 -19.759  0.00  0.00    -0.196 A 
ATOM      4  C   LIG    1       -3.918 -12.482 -18.510  0.00  0.00    +0.308 A 
ATOM      5  O   LIG    1       -4.426 -11.264 -18.192  0.00  0.00    -0.598 OA
ATOM      6  C   LIG    1       -3.971 -13.522 -17.582  0.00  0.00    -0.012 A 
ATOM      7  C   LIG    1       -3.460 -14.763 -17.903  0.00  0.00    +0.081 A 
ENDROOT
BRANCH   3   8
ATOM      8  N   LIG    1       -3.291 -11.580 -20.738  0.00  0.00    +0.068 N 
ATOM      9  O   LIG    1       -2.344 -10.829 -20.750  0.00  0.00    -0.153 OA
ATOM     10  O   LIG    1       -4.195 -11.426 -21.527  0.00  0.00    -0.245 OA
ENDBRANCH   3   8
BRANCH   1  12
ATOM     11  C   LIG    1       -2.820 -16.972 -20.595  0.00  0.00    -0.203 C 
ATOM     12  C   LIG    1       -2.326 -16.284 -19.508  0.00  0.00    +0.286 C 
BRANCH  11  15
ATOM     13  C   LIG    1       -2.770 -20.761 -20.727  0.00  0.00    +0.289 C 
ATOM     14  N   LIG    1       -3.234 -19.378 -20.589  0.00  0.00    -0.622 N 
ATOM     15  C   LIG    1       -2.392 -18.357 -20.844  0.00  0.00    +0.583 C 
ATOM     16  O   LIG    1       -1.278 -18.581 -21.278  0.00  0.00    -0.539 OA
ATOM     17  C   LIG    1       -4.613 -19.106 -20.177  0.00  0.00    +0.280 C 
ENDBRANCH  11  15
BRANCH  11  18
ATOM     18  C   LIG    1       -3.750 -16.339 -21.481  0.00  0.00    +0.276 C 
ATOM     19  N   LIG    1       -4.489 -15.837 -22.183  0.00  0.00    -0.443 NA
ENDBRANCH  11  18
ENDBRANCH   1  12
BRANCH   6  20
ATOM     20  O   LIG    1       -4.532 -13.314 -16.360  0.00  0.00    -0.479 OA
ATOM     21  H   LIG    1       -3.957 -13.547 -15.619  0.00  0.00    +0.372 HD
ENDBRANCH   6  20
TORSDOF 5
ENDMDL
MODEL 8
REMARK VINA RESULT:      -5.0      4.432      5.948
REMARK  Name = CHEMBL168389
REMARK                            x       y       z     vdW  Elec       q    Type
REMARK                         _______ _______ _______ _____ _____    ______ ____
ROOT
ATOM      1  C   LIG    1       -1.145  -9.619 -20.300  0.00  0.00    -0.239 A 
ATOM      2  C   LIG    1       -1.194 -10.727 -21.158  0.00  0.00    +0.185 A 
ATOM      3  C   LIG    1       -2.300 -11.546 -21.160  0.00  0.00    -0.196 A 
ATOM      4  C   LIG    1       -3.370 -11.277 -20.314  0.00  0.00    +0.308 A 
ATOM      5  O   LIG    1       -4.459 -12.088 -20.323  0.00  0.00    -0.598 OA
ATOM      6  C   LIG    1       -3.330 -10.176 -19.458  0.00  0.00    -0.012 A 
ATOM      7  C   LIG    1       -2.223  -9.353 -19.444  0.00  0.00    +0.081 A 
ENDROOT
BRANCH   3   8
ATOM      8  N   LIG    1       -2.351 -12.715 -22.065  0.00  0.00    +0.068 N 
ATOM      9  O   LIG    1       -1.941 -13.789 -21.691  0.00  0.00    -0.153 OA
ATOM     10  O   LIG    1       -2.804 -12.596 -23.180  0.00  0.00    -0.245 OA
ENDBRANCH   3   8
BRANCH   1  12
ATOM     11  C   LIG    1        0.223  -7.841 -21.317  0.00  0.00    -0.203 C 
ATOM     12  C   LIG    1        0.031  -8.746 -20.295  0.00  0.00    +0.286 C 
BRANCH  11  15
ATOM     13  C   LIG    1        3.803  -6.883 -22.120  0.00  0.00    +0.289 C 
ATOM     14  N   LIG    1        2.511  -7.574 -22.126  0.00  0.00    -0.622 N 
ATOM     15  C   LIG    1        1.482  -7.087 -21.404  0.00  0.00    +0.583 C 
ATOM     16  O   LIG    1        1.597  -6.024 -20.825  0.00  0.00    -0.539 OA
ATOM     17  C   LIG    1        2.337  -8.794 -22.918  0.00  0.00    +0.280 C 
ENDBRANCH  11  15
BRANCH  11  18
ATOM     18  C   LIG    1       -0.804  -7.637 -22.294  0.00  0.00    +0.276 C 
ATOM     19  N   LIG    1       -1.619  -7.476 -23.069  0.00  0.00    -0.443 NA
ENDBRANCH  11  18
ENDBRANCH   1  12
BRANCH   6  20
ATOM     20  O   LIG    1       -4.380  -9.918 -18.634  0.00  0.00    -0.479 OA
ATOM     21  H   LIG    1       -5.141  -9.522 -19.080  0.00  0.00    +0.372 HD
ENDBRANCH   6  20
TORSDOF 5
ENDMDL
MODEL 9
REMARK VINA RESULT:      -4.8      2.335      2.757
REMARK  Name = CHEMBL168389
REMARK                            x       y       z     vdW  Elec       q    Type
REMARK                         _______ _______ _______ _____ _____    ______ ____
ROOT
ATOM      1  C   LIG    1       -3.074 -10.676 -20.115  0.00  0.00    -0.239 A 
ATOM      2  C   LIG    1       -3.768 -10.140 -19.021  0.00  0.00    +0.185 A 
ATOM      3  C   LIG    1       -4.320 -10.979 -18.079  0.00  0.00    -0.196 A 
ATOM      4  C   LIG    1       -4.191 -12.357 -18.209  0.00  0.00    +0.308 A 
ATOM      5  O   LIG    1       -4.737 -13.177 -17.276  0.00  0.00    -0.598 OA
ATOM      6  C   LIG    1       -3.501 -12.898 -19.294  0.00  0.00    -0.012 A 
ATOM      7  C   LIG    1       -2.950 -12.066 -20.247  0.00  0.00    +0.081 A 
ENDROOT
BRANCH   3   8
ATOM      8  N   LIG    1       -5.053 -10.412 -16.925  0.00  0.00    +0.068 N 
ATOM      9  O   LIG    1       -5.565 -11.147 -16.114  0.00  0.00    -0.153 OA
ATOM     10  O   LIG    1       -5.138  -9.213 -16.793  0.00  0.00    -0.245 OA
ENDBRANCH   3   8
BRANCH   1  12
ATOM     11  C   LIG    1       -3.042  -9.706 -22.378  0.00  0.00    -0.203 C 
ATOM     12  C   LIG    1       -2.486  -9.787 -21.119  0.00  0.00    +0.286 C 
BRANCH  11  15
ATOM     13  C   LIG    1       -0.653  -8.764 -25.167  0.00  0.00    +0.289 C 
ATOM     14  N   LIG    1       -1.416  -9.547 -24.192  0.00  0.00    -0.622 N 
ATOM     15  C   LIG    1       -2.358  -8.948 -23.436  0.00  0.00    +0.583 C 
ATOM     16  O   LIG    1       -2.641  -7.781 -23.630  0.00  0.00    -0.539 OA
ATOM     17  C   LIG    1       -1.157 -10.980 -24.039  0.00  0.00    +0.280 C 
ENDBRANCH  11  15
BRANCH  11  18
ATOM     18  C   LIG    1       -4.286 -10.360 -22.654  0.00  0.00    +0.276 C 
ATOM     19  N   LIG    1       -5.273 -10.879 -22.873  0.00  0.00    -0.443 NA
ENDBRANCH  11  18
ENDBRANCH   1  12
BRANCH   6  20
ATOM     20  O   LIG    1       -3.377 -14.247 -19.415  0.00  0.00    -0.479 OA
ATOM     21  H   LIG    1       -3.639 -14.738 -18.625  0.00  0.00    +0.372 HD
ENDBRANCH   6  20
TORSDOF 5
ENDMDL
