MODEL 1
REMARK VINA RESULT:      -5.7      0.000      0.000
REMARK  Name = CHEMBL167055
REMARK                            x       y       z     vdW  Elec       q    Type
REMARK                         _______ _______ _______ _____ _____    ______ ____
ROOT
ATOM      1  C   LIG    1       -3.796 -11.378 -20.187  0.00  0.00    -0.234 A 
ATOM      2  C   LIG    1       -3.461 -12.740 -20.235  0.00  0.00    +0.163 A 
ATOM      3  C   LIG    1       -3.425 -13.477 -19.086  0.00  0.00    -0.190 A 
ATOM      4  C   LIG    1       -3.719 -12.885 -17.863  0.00  0.00    +0.309 A 
ATOM      5  O   LIG    1       -3.680 -13.626 -16.727  0.00  0.00    -0.598 OA
ATOM      6  C   LIG    1       -4.053 -11.531 -17.799  0.00  0.00    -0.017 A 
ATOM      7  C   LIG    1       -4.088 -10.775 -18.952  0.00  0.00    +0.095 A 
ENDROOT
BRANCH   3   8
ATOM      8  N   LIG    1       -3.071 -14.914 -19.143  0.00  0.00    +0.068 N 
ATOM      9  O   LIG    1       -2.300 -15.378 -18.337  0.00  0.00    -0.151 OA
ATOM     10  O   LIG    1       -3.554 -15.621 -19.996  0.00  0.00    -0.246 OA
ENDBRANCH   3   8
BRANCH   1  12
ATOM     11  C   LIG    1       -2.703  -9.924 -21.797  0.00  0.00    -0.352 C 
ATOM     12  C   LIG    1       -3.833 -10.611 -21.379  0.00  0.00    +0.244 C 
BRANCH  11  14
ATOM     13  C   LIG    1       -1.057  -9.203 -19.955  0.00  0.00    +0.064 C 
ATOM     14  C   LIG    1       -1.430 -10.113 -21.098  0.00  0.00    +0.409 C 
ATOM     15  O   LIG    1       -0.678 -11.002 -21.436  0.00  0.00    -0.447 OA
ENDBRANCH  11  14
BRANCH  11  16
ATOM     16  C   LIG    1       -2.781  -9.010 -22.938  0.00  0.00    +0.410 C 
ATOM     17  C   LIG    1       -1.716  -7.964 -23.140  0.00  0.00    +0.060 C 
ATOM     18  O   LIG    1       -3.704  -9.097 -23.722  0.00  0.00    -0.481 OA
ENDBRANCH  11  16
ENDBRANCH   1  12
BRANCH   6  19
ATOM     19  O   LIG    1       -4.340 -10.957 -16.600  0.00  0.00    -0.478 OA
ATOM     20  H   LIG    1       -3.951 -11.414 -15.842  0.00  0.00    +0.371 HD
ENDBRANCH   6  19
TORSDOF 5
ENDMDL
MODEL 2
REMARK VINA RESULT:      -5.7      1.559      3.013
REMARK  Name = CHEMBL167055
REMARK                            x       y       z     vdW  Elec       q    Type
REMARK                         _______ _______ _______ _____ _____    ______ ____
ROOT
ATOM      1  C   LIG    1       -3.781 -11.174 -20.308  0.00  0.00    -0.234 A 
ATOM      2  C   LIG    1       -4.340 -10.514 -19.203  0.00  0.00    +0.163 A 
ATOM      3  C   LIG    1       -4.440 -11.155 -18.001  0.00  0.00    -0.190 A 
ATOM      4  C   LIG    1       -3.989 -12.464 -17.864  0.00  0.00    +0.309 A 
ATOM      5  O   LIG    1       -4.093 -13.092 -16.666  0.00  0.00    -0.598 OA
ATOM      6  C   LIG    1       -3.432 -13.134 -18.955  0.00  0.00    -0.017 A 
ATOM      7  C   LIG    1       -3.331 -12.498 -20.175  0.00  0.00    +0.095 A 
ENDROOT
BRANCH   3   8
ATOM      8  N   LIG    1       -5.030 -10.453 -16.839  0.00  0.00    +0.068 N 
ATOM      9  O   LIG    1       -4.940  -9.252 -16.750  0.00  0.00    -0.151 OA
ATOM     10  O   LIG    1       -5.601 -11.083 -15.980  0.00  0.00    -0.246 OA
ENDBRANCH   3   8
BRANCH   1  12
ATOM     11  C   LIG    1       -2.563  -9.733 -21.838  0.00  0.00    -0.352 C 
ATOM     12  C   LIG    1       -3.677 -10.510 -21.557  0.00  0.00    +0.244 C 
BRANCH  11  14
ATOM     13  C   LIG    1       -1.332  -8.660 -19.850  0.00  0.00    +0.064 C 
ATOM     14  C   LIG    1       -1.426  -9.721 -20.917  0.00  0.00    +0.409 C 
ATOM     15  O   LIG    1       -0.561 -10.566 -21.010  0.00  0.00    -0.447 OA
ENDBRANCH  11  14
BRANCH  11  16
ATOM     16  C   LIG    1       -2.524  -8.923 -23.058  0.00  0.00    +0.410 C 
ATOM     17  C   LIG    1       -3.704  -8.916 -23.995  0.00  0.00    +0.060 C 
ATOM     18  O   LIG    1       -1.542  -8.257 -23.313  0.00  0.00    -0.481 OA
ENDBRANCH  11  16
ENDBRANCH   1  12
BRANCH   6  19
ATOM     19  O   LIG    1       -2.993 -14.413 -18.815  0.00  0.00    -0.478 OA
ATOM     20  H   LIG    1       -3.205 -14.810 -17.960  0.00  0.00    +0.371 HD
ENDBRANCH   6  19
TORSDOF 5
ENDMDL
MODEL 3
REMARK VINA RESULT:      -5.4      2.715      4.317
REMARK  Name = CHEMBL167055
REMARK                            x       y       z     vdW  Elec       q    Type
REMARK                         _______ _______ _______ _____ _____    ______ ____
ROOT
ATOM      1  C   LIG    1       -3.372 -11.646 -19.274  0.00  0.00    -0.234 A 
ATOM      2  C   LIG    1       -4.032 -10.480 -18.855  0.00  0.00    +0.163 A 
ATOM      3  C   LIG    1       -4.717 -10.467 -17.674  0.00  0.00    -0.190 A 
ATOM      4  C   LIG    1       -4.767 -11.607 -16.880  0.00  0.00    +0.309 A 
ATOM      5  O   LIG    1       -5.451 -11.585 -15.708  0.00  0.00    -0.598 OA
ATOM      6  C   LIG    1       -4.117 -12.775 -17.283  0.00  0.00    -0.017 A 
ATOM      7  C   LIG    1       -3.426 -12.802 -18.476  0.00  0.00    +0.095 A 
ENDROOT
BRANCH   3   8
ATOM      8  N   LIG    1       -5.410  -9.234 -17.238  0.00  0.00    +0.068 N 
ATOM      9  O   LIG    1       -6.503  -9.304 -16.726  0.00  0.00    -0.151 OA
ATOM     10  O   LIG    1       -4.883  -8.157 -17.394  0.00  0.00    -0.246 OA
ENDBRANCH   3   8
BRANCH   1  12
ATOM     11  C   LIG    1       -3.029 -12.544 -21.505  0.00  0.00    -0.352 C 
ATOM     12  C   LIG    1       -2.661 -11.661 -20.500  0.00  0.00    +0.244 C 
BRANCH  11  14
ATOM     13  C   LIG    1       -5.594 -12.725 -21.596  0.00  0.00    +0.064 C 
ATOM     14  C   LIG    1       -4.242 -13.350 -21.363  0.00  0.00    +0.409 C 
ATOM     15  O   LIG    1       -4.160 -14.522 -21.060  0.00  0.00    -0.447 OA
ENDBRANCH  11  14
BRANCH  11  16
ATOM     16  C   LIG    1       -2.203 -12.670 -22.708  0.00  0.00    +0.410 C 
ATOM     17  C   LIG    1       -2.214 -11.578 -23.746  0.00  0.00    +0.060 C 
ATOM     18  O   LIG    1       -1.510 -13.653 -22.867  0.00  0.00    -0.481 OA
ENDBRANCH  11  16
ENDBRANCH   1  12
BRANCH   6  19
ATOM     19  O   LIG    1       -4.169 -13.887 -16.502  0.00  0.00    -0.478 OA
ATOM     20  H   LIG    1       -4.411 -13.711 -15.583  0.00  0.00    +0.371 HD
ENDBRANCH   6  19
TORSDOF 5
ENDMDL
MODEL 4
REMARK VINA RESULT:      -5.4      1.506      2.475
REMARK  Name = CHEMBL167055
REMARK                            x       y       z     vdW  Elec       q    Type
REMARK                         _______ _______ _______ _____ _____    ______ ____
ROOT
ATOM      1  C   LIG    1       -3.229 -10.066 -19.168  0.00  0.00    -0.234 A 
ATOM      2  C   LIG    1       -3.121 -11.427 -18.842  0.00  0.00    +0.163 A 
ATOM      3  C   LIG    1       -3.882 -11.952 -17.838  0.00  0.00    -0.190 A 
ATOM      4  C   LIG    1       -4.766 -11.144 -17.131  0.00  0.00    +0.309 A 
ATOM      5  O   LIG    1       -5.518 -11.675 -16.134  0.00  0.00    -0.598 OA
ATOM      6  C   LIG    1       -4.883  -9.788 -17.443  0.00  0.00    -0.017 A 
ATOM      7  C   LIG    1       -4.116  -9.245 -18.452  0.00  0.00    +0.095 A 
ENDROOT
BRANCH   3   8
ATOM      8  N   LIG    1       -3.765 -13.389 -17.499  0.00  0.00    +0.068 N 
ATOM      9  O   LIG    1       -3.718 -13.734 -16.342  0.00  0.00    -0.151 OA
ATOM     10  O   LIG    1       -3.716 -14.215 -18.380  0.00  0.00    -0.246 OA
ENDBRANCH   3   8
BRANCH   1  12
ATOM     11  C   LIG    1       -2.648  -9.920 -21.523  0.00  0.00    -0.352 C 
ATOM     12  C   LIG    1       -2.438  -9.519 -20.211  0.00  0.00    +0.244 C 
BRANCH  11  14
ATOM     13  C   LIG    1       -3.567 -12.267 -22.041  0.00  0.00    +0.064 C 
ATOM     14  C   LIG    1       -3.781 -10.787 -21.852  0.00  0.00    +0.409 C 
ATOM     15  O   LIG    1       -4.892 -10.313 -21.971  0.00  0.00    -0.447 OA
ENDBRANCH  11  14
BRANCH  11  16
ATOM     16  C   LIG    1       -1.735  -9.478 -22.579  0.00  0.00    +0.410 C 
ATOM     17  C   LIG    1       -2.052  -8.240 -23.378  0.00  0.00    +0.060 C 
ATOM     18  O   LIG    1       -0.723 -10.107 -22.809  0.00  0.00    -0.481 OA
ENDBRANCH  11  16
ENDBRANCH   1  12
BRANCH   6  19
ATOM     19  O   LIG    1       -5.749  -9.003 -16.749  0.00  0.00    -0.478 OA
ATOM     20  H   LIG    1       -6.309  -8.446 -17.307  0.00  0.00    +0.371 HD
ENDBRANCH   6  19
TORSDOF 5
ENDMDL
MODEL 5
REMARK VINA RESULT:      -5.3      9.767     12.530
REMARK  Name = CHEMBL167055
REMARK                            x       y       z     vdW  Elec       q    Type
REMARK                         _______ _______ _______ _____ _____    ______ ____
ROOT
ATOM      1  C   LIG    1        7.201  -6.187 -18.162  0.00  0.00    -0.234 A 
ATOM      2  C   LIG    1        6.756  -5.578 -16.978  0.00  0.00    +0.163 A 
ATOM      3  C   LIG    1        6.854  -4.224 -16.827  0.00  0.00    -0.190 A 
ATOM      4  C   LIG    1        7.395  -3.442 -17.841  0.00  0.00    +0.309 A 
ATOM      5  O   LIG    1        7.488  -2.098 -17.680  0.00  0.00    -0.598 OA
ATOM      6  C   LIG    1        7.843  -4.034 -19.023  0.00  0.00    -0.017 A 
ATOM      7  C   LIG    1        7.754  -5.400 -19.186  0.00  0.00    +0.095 A 
ENDROOT
BRANCH   3   8
ATOM      8  N   LIG    1        6.381  -3.587 -15.576  0.00  0.00    +0.068 N 
ATOM      9  O   LIG    1        5.513  -2.748 -15.617  0.00  0.00    -0.151 OA
ATOM     10  O   LIG    1        6.865  -3.906 -14.516  0.00  0.00    -0.246 OA
ENDBRANCH   3   8
BRANCH   1  12
ATOM     11  C   LIG    1        6.118  -8.129 -19.140  0.00  0.00    -0.352 C 
ATOM     12  C   LIG    1        7.100  -7.593 -18.320  0.00  0.00    +0.244 C 
BRANCH  11  14
ATOM     13  C   LIG    1        5.622  -7.035 -21.415  0.00  0.00    +0.064 C 
ATOM     14  C   LIG    1        5.287  -7.248 -19.961  0.00  0.00    +0.409 C 
ATOM     15  O   LIG    1        4.327  -6.690 -19.471  0.00  0.00    -0.447 OA
ENDBRANCH  11  14
BRANCH  11  16
ATOM     16  C   LIG    1        5.912  -9.579 -19.184  0.00  0.00    +0.410 C 
ATOM     17  C   LIG    1        4.599 -10.139 -19.665  0.00  0.00    +0.060 C 
ATOM     18  O   LIG    1        6.800 -10.328 -18.833  0.00  0.00    -0.481 OA
ENDBRANCH  11  16
ENDBRANCH   1  12
BRANCH   6  19
ATOM     19  O   LIG    1        8.371  -3.263 -20.012  0.00  0.00    -0.478 OA
ATOM     20  H   LIG    1        7.711  -2.862 -20.592  0.00  0.00    +0.371 HD
ENDBRANCH   6  19
TORSDOF 5
ENDMDL
MODEL 6
REMARK VINA RESULT:      -5.3      2.655      4.632
REMARK  Name = CHEMBL167055
REMARK                            x       y       z     vdW  Elec       q    Type
REMARK                         _______ _______ _______ _____ _____    ______ ____
ROOT
ATOM      1  C   LIG    1       -1.388  -8.883 -20.895  0.00  0.00    -0.234 A 
ATOM      2  C   LIG    1       -1.921  -9.670 -19.862  0.00  0.00    +0.163 A 
ATOM      3  C   LIG    1       -2.989 -10.486 -20.105  0.00  0.00    -0.190 A 
ATOM      4  C   LIG    1       -3.555 -10.543 -21.374  0.00  0.00    +0.309 A 
ATOM      5  O   LIG    1       -4.615 -11.357 -21.605  0.00  0.00    -0.598 OA
ATOM      6  C   LIG    1       -3.036  -9.765 -22.411  0.00  0.00    -0.017 A 
ATOM      7  C   LIG    1       -1.961  -8.933 -22.177  0.00  0.00    +0.095 A 
ENDROOT
BRANCH   3   8
ATOM      8  N   LIG    1       -3.546 -11.315 -19.012  0.00  0.00    +0.068 N 
ATOM      9  O   LIG    1       -4.271 -10.814 -18.185  0.00  0.00    -0.151 OA
ATOM     10  O   LIG    1       -3.276 -12.491 -18.948  0.00  0.00    -0.246 OA
ENDBRANCH   3   8
BRANCH   1  12
ATOM     11  C   LIG    1        0.984  -8.397 -21.084  0.00  0.00    -0.352 C 
ATOM     12  C   LIG    1       -0.280  -8.034 -20.644  0.00  0.00    +0.244 C 
BRANCH  11  14
ATOM     13  C   LIG    1        1.376  -9.401 -23.420  0.00  0.00    +0.064 C 
ATOM     14  C   LIG    1        1.153  -9.573 -21.940  0.00  0.00    +0.409 C 
ATOM     15  O   LIG    1        1.115 -10.685 -21.456  0.00  0.00    -0.447 OA
ENDBRANCH  11  14
BRANCH  11  16
ATOM     16  C   LIG    1        2.151  -7.603 -20.693  0.00  0.00    +0.410 C 
ATOM     17  C   LIG    1        3.464  -8.285 -20.406  0.00  0.00    +0.060 C 
ATOM     18  O   LIG    1        2.061  -6.396 -20.601  0.00  0.00    -0.481 OA
ENDBRANCH  11  16
ENDBRANCH   1  12
BRANCH   6  19
ATOM     19  O   LIG    1       -3.593  -9.825 -23.650  0.00  0.00    -0.478 OA
ATOM     20  H   LIG    1       -4.558  -9.880 -23.645  0.00  0.00    +0.371 HD
ENDBRANCH   6  19
TORSDOF 5
ENDMDL
MODEL 7
REMARK VINA RESULT:      -5.2      3.550      7.026
REMARK  Name = CHEMBL167055
REMARK                            x       y       z     vdW  Elec       q    Type
REMARK                         _______ _______ _______ _____ _____    ______ ____
ROOT
ATOM      1  C   LIG    1       -0.532  -8.681 -20.587  0.00  0.00    -0.234 A 
ATOM      2  C   LIG    1       -0.746  -7.582 -21.434  0.00  0.00    +0.163 A 
ATOM      3  C   LIG    1        0.188  -7.251 -22.374  0.00  0.00    -0.190 A 
ATOM      4  C   LIG    1        1.355  -7.997 -22.497  0.00  0.00    +0.309 A 
ATOM      5  O   LIG    1        2.277  -7.660 -23.433  0.00  0.00    -0.598 OA
ATOM      6  C   LIG    1        1.582  -9.091 -21.660  0.00  0.00    -0.017 A 
ATOM      7  C   LIG    1        0.649  -9.433 -20.704  0.00  0.00    +0.095 A 
ENDROOT
BRANCH   3   8
ATOM      8  N   LIG    1       -0.043  -6.092 -23.266  0.00  0.00    +0.068 N 
ATOM      9  O   LIG    1       -0.822  -6.184 -24.185  0.00  0.00    -0.151 OA
ATOM     10  O   LIG    1        0.547  -5.055 -23.073  0.00  0.00    -0.246 OA
ENDBRANCH   3   8
BRANCH   1  12
ATOM     11  C   LIG    1       -2.532  -9.896 -19.934  0.00  0.00    -0.352 C 
ATOM     12  C   LIG    1       -1.501  -9.026 -19.611  0.00  0.00    +0.244 C 
BRANCH  11  14
ATOM     13  C   LIG    1       -3.346 -10.022 -22.372  0.00  0.00    +0.064 C 
ATOM     14  C   LIG    1       -2.536 -10.578 -21.229  0.00  0.00    +0.409 C 
ATOM     15  O   LIG    1       -1.885 -11.591 -21.383  0.00  0.00    -0.447 OA
ENDBRANCH  11  14
BRANCH  11  16
ATOM     16  C   LIG    1       -3.618 -10.131 -18.980  0.00  0.00    +0.410 C 
ATOM     17  C   LIG    1       -4.172 -11.521 -18.799  0.00  0.00    +0.060 C 
ATOM     18  O   LIG    1       -4.070  -9.208 -18.336  0.00  0.00    -0.481 OA
ENDBRANCH  11  16
ENDBRANCH   1  12
BRANCH   6  19
ATOM     19  O   LIG    1        2.725  -9.818 -21.785  0.00  0.00    -0.478 OA
ATOM     20  H   LIG    1        3.086 -10.130 -20.944  0.00  0.00    +0.371 HD
ENDBRANCH   6  19
TORSDOF 5
ENDMDL
MODEL 8
REMARK VINA RESULT:      -5.0     10.135     12.748
REMARK  Name = CHEMBL167055
REMARK                            x       y       z     vdW  Elec       q    Type
REMARK                         _______ _______ _______ _____ _____    ______ ____
ROOT
ATOM      1  C   LIG    1        7.394  -6.092 -17.946  0.00  0.00    -0.234 A 
ATOM      2  C   LIG    1        7.757  -4.945 -18.669  0.00  0.00    +0.163 A 
ATOM      3  C   LIG    1        7.594  -3.707 -18.116  0.00  0.00    -0.190 A 
ATOM      4  C   LIG    1        7.068  -3.574 -16.835  0.00  0.00    +0.309 A 
ATOM      5  O   LIG    1        6.910  -2.340 -16.295  0.00  0.00    -0.598 OA
ATOM      6  C   LIG    1        6.702  -4.706 -16.105  0.00  0.00    -0.017 A 
ATOM      7  C   LIG    1        6.857  -5.961 -16.654  0.00  0.00    +0.095 A 
ENDROOT
BRANCH   3   8
ATOM      8  N   LIG    1        7.980  -2.501 -18.883  0.00  0.00    +0.068 N 
ATOM      9  O   LIG    1        9.099  -2.056 -18.787  0.00  0.00    -0.151 OA
ATOM     10  O   LIG    1        7.174  -1.962 -19.605  0.00  0.00    -0.246 OA
ENDBRANCH   3   8
BRANCH   1  12
ATOM     11  C   LIG    1        6.650  -7.844 -19.455  0.00  0.00    -0.352 C 
ATOM     12  C   LIG    1        7.562  -7.378 -18.520  0.00  0.00    +0.244 C 
BRANCH  11  14
ATOM     13  C   LIG    1        5.764  -6.303 -21.314  0.00  0.00    +0.064 C 
ATOM     14  C   LIG    1        5.605  -6.956 -19.965  0.00  0.00    +0.409 C 
ATOM     15  O   LIG    1        4.610  -6.746 -19.303  0.00  0.00    -0.447 OA
ENDBRANCH  11  14
BRANCH  11  16
ATOM     16  C   LIG    1        6.732  -9.227 -19.932  0.00  0.00    +0.410 C 
ATOM     17  C   LIG    1        5.838 -10.283 -19.336  0.00  0.00    +0.060 C 
ATOM     18  O   LIG    1        7.519  -9.520 -20.807  0.00  0.00    -0.481 OA
ENDBRANCH  11  16
ENDBRANCH   1  12
BRANCH   6  19
ATOM     19  O   LIG    1        6.188  -4.570 -14.852  0.00  0.00    -0.478 OA
ATOM     20  H   LIG    1        6.431  -5.285 -14.249  0.00  0.00    +0.371 HD
ENDBRANCH   6  19
TORSDOF 5
ENDMDL
MODEL 9
REMARK VINA RESULT:      -5.0      3.170      6.383
REMARK  Name = CHEMBL167055
REMARK                            x       y       z     vdW  Elec       q    Type
REMARK                         _______ _______ _______ _____ _____    ______ ____
ROOT
ATOM      1  C   LIG    1       -0.591  -8.660 -20.498  0.00  0.00    -0.234 A 
ATOM      2  C   LIG    1        0.600  -9.401 -20.563  0.00  0.00    +0.163 A 
ATOM      3  C   LIG    1        1.543  -9.099 -21.504  0.00  0.00    -0.190 A 
ATOM      4  C   LIG    1        1.329  -8.061 -22.404  0.00  0.00    +0.309 A 
ATOM      5  O   LIG    1        2.272  -7.770 -23.336  0.00  0.00    -0.598 OA
ATOM      6  C   LIG    1        0.149  -7.317 -22.353  0.00  0.00    -0.017 A 
ATOM      7  C   LIG    1       -0.813  -7.615 -21.410  0.00  0.00    +0.095 A 
ENDROOT
BRANCH   3   8
ATOM      8  N   LIG    1        2.798  -9.883 -21.567  0.00  0.00    +0.068 N 
ATOM      9  O   LIG    1        3.758  -9.536 -20.921  0.00  0.00    -0.151 OA
ATOM     10  O   LIG    1        2.860 -10.868 -22.264  0.00  0.00    -0.246 OA
ENDBRANCH   3   8
BRANCH   1  12
ATOM     11  C   LIG    1       -2.587  -9.867 -19.821  0.00  0.00    -0.352 C 
ATOM     12  C   LIG    1       -1.571  -8.972 -19.522  0.00  0.00    +0.244 C 
BRANCH  11  14
ATOM     13  C   LIG    1       -3.392 -10.132 -22.251  0.00  0.00    +0.064 C 
ATOM     14  C   LIG    1       -2.564 -10.607 -21.084  0.00  0.00    +0.409 C 
ATOM     15  O   LIG    1       -1.878 -11.601 -21.192  0.00  0.00    -0.447 OA
ENDBRANCH  11  14
BRANCH  11  16
ATOM     16  C   LIG    1       -3.685 -10.073 -18.873  0.00  0.00    +0.410 C 
ATOM     17  C   LIG    1       -4.188 -11.466 -18.594  0.00  0.00    +0.060 C 
ATOM     18  O   LIG    1       -4.188  -9.121 -18.313  0.00  0.00    -0.481 OA
ENDBRANCH  11  16
ENDBRANCH   1  12
BRANCH   6  19
ATOM     19  O   LIG    1       -0.054  -6.302 -23.235  0.00  0.00    -0.478 OA
ATOM     20  H   LIG    1        0.548  -6.312 -23.991  0.00  0.00    +0.371 HD
ENDBRANCH   6  19
TORSDOF 5
ENDMDL
