MODEL 1
REMARK VINA RESULT:      -6.9      0.000      0.000
REMARK  Name = CHEMBL167172
REMARK                            x       y       z     vdW  Elec       q    Type
REMARK                         _______ _______ _______ _____ _____    ______ ____
ROOT
ATOM      1  C   LIG    1       -2.751 -10.496 -19.921  0.00  0.00    +0.581 C 
ATOM      2  N   LIG    1       -1.996  -9.379 -19.926  0.00  0.00    -0.733 N 
ATOM      3  H   LIG    1       -1.987  -8.798 -19.149  0.00  0.00    +0.396 HD
ATOM      4  O   LIG    1       -2.763 -11.225 -20.894  0.00  0.00    -0.557 OA
ENDROOT
BRANCH   2   5
ATOM      5  C   LIG    1       -1.192  -9.043 -21.103  0.00  0.00    +0.188 C 
ATOM      6  C   LIG    1       -0.183 -10.162 -21.368  0.00  0.00    +0.023 C 
ATOM      7  C   LIG    1        0.657  -9.811 -22.597  0.00  0.00    -0.014 C 
ATOM      8  C   LIG    1        1.404  -8.499 -22.347  0.00  0.00    +0.012 C 
ATOM      9  C   LIG    1        0.395  -7.380 -22.083  0.00  0.00    -0.009 C 
ATOM     10  C   LIG    1       -0.521  -7.222 -23.298  0.00  0.00    +0.012 C 
ATOM     11  C   LIG    1       -1.268  -8.534 -23.548  0.00  0.00    -0.014 C 
ATOM     12  C   LIG    1       -0.258  -9.653 -23.812  0.00  0.00    +0.015 C 
ATOM     13  C   LIG    1       -2.108  -8.885 -22.318  0.00  0.00    +0.023 C 
ATOM     14  C   LIG    1       -0.445  -7.731 -20.853  0.00  0.00    +0.018 C 
ENDBRANCH   2   5
BRANCH   1  16
ATOM     15  C   LIG    1       -4.501  -9.927 -18.252  0.00  0.00    +0.170 A 
ATOM     16  C   LIG    1       -3.561 -10.835 -18.734  0.00  0.00    -0.274 A 
ATOM     17  C   LIG    1       -3.384 -12.066 -18.095  0.00  0.00    +0.066 A 
ATOM     18  C   LIG    1       -4.140 -12.388 -16.985  0.00  0.00    -0.039 A 
ATOM     19  C   LIG    1       -5.083 -11.486 -16.496  0.00  0.00    +0.311 A 
ATOM     20  O   LIG    1       -5.824 -11.805 -15.405  0.00  0.00    -0.665 OA
ATOM     21  C   LIG    1       -5.265 -10.250 -17.132  0.00  0.00    -0.204 A 
BRANCH  18  22
ATOM     22  O   LIG    1       -3.963 -13.587 -16.367  0.00  0.00    -0.486 OA
ATOM     23  H   LIG    1       -3.632 -13.518 -15.462  0.00  0.00    +0.363 HD
ENDBRANCH  18  22
BRANCH  21  24
ATOM     24  C   LIG    1       -6.233  -9.321 -16.631  0.00  0.00    +0.306 C 
ATOM     25  N   LIG    1       -7.002  -8.584 -16.234  0.00  0.00    -0.492 NA
ENDBRANCH  21  24
ENDBRANCH   1  16
TORSDOF 4
ENDMDL
MODEL 2
REMARK VINA RESULT:      -6.9      1.665      2.833
REMARK  Name = CHEMBL167172
REMARK                            x       y       z     vdW  Elec       q    Type
REMARK                         _______ _______ _______ _____ _____    ______ ____
ROOT
ATOM      1  C   LIG    1       -2.761  -9.901 -20.367  0.00  0.00    +0.581 C 
ATOM      2  N   LIG    1       -1.653  -9.142 -20.248  0.00  0.00    -0.733 N 
ATOM      3  H   LIG    1       -1.331  -8.890 -19.368  0.00  0.00    +0.396 HD
ATOM      4  O   LIG    1       -3.167 -10.217 -21.469  0.00  0.00    -0.557 OA
ENDROOT
BRANCH   2   5
ATOM      5  C   LIG    1       -0.939  -8.696 -21.446  0.00  0.00    +0.188 C 
ATOM      6  C   LIG    1       -1.950  -8.300 -22.525  0.00  0.00    +0.023 C 
ATOM      7  C   LIG    1       -1.204  -7.836 -23.776  0.00  0.00    -0.014 C 
ATOM      8  C   LIG    1       -0.321  -8.973 -24.297  0.00  0.00    +0.012 C 
ATOM      9  C   LIG    1        0.690  -9.367 -23.218  0.00  0.00    -0.009 C 
ATOM     10  C   LIG    1        1.564  -8.161 -22.872  0.00  0.00    +0.012 C 
ATOM     11  C   LIG    1        0.681  -7.024 -22.352  0.00  0.00    -0.014 C 
ATOM     12  C   LIG    1       -0.329  -6.629 -23.431  0.00  0.00    +0.015 C 
ATOM     13  C   LIG    1       -0.065  -7.489 -21.100  0.00  0.00    +0.023 C 
ATOM     14  C   LIG    1       -0.056  -9.833 -21.966  0.00  0.00    +0.018 C 
ENDBRANCH   2   5
BRANCH   1  16
ATOM     15  C   LIG    1       -3.428 -11.689 -18.774  0.00  0.00    +0.170 A 
ATOM     16  C   LIG    1       -3.482 -10.350 -19.159  0.00  0.00    -0.274 A 
ATOM     17  C   LIG    1       -4.218  -9.433 -18.402  0.00  0.00    +0.066 A 
ATOM     18  C   LIG    1       -4.893  -9.849 -17.271  0.00  0.00    -0.039 A 
ATOM     19  C   LIG    1       -4.844 -11.185 -16.878  0.00  0.00    +0.311 A 
ATOM     20  O   LIG    1       -5.508 -11.590 -15.767  0.00  0.00    -0.665 OA
ATOM     21  C   LIG    1       -4.108 -12.110 -17.634  0.00  0.00    -0.204 A 
BRANCH  18  22
ATOM     22  O   LIG    1       -5.607  -8.952 -16.539  0.00  0.00    -0.486 OA
ATOM     23  H   LIG    1       -6.529  -9.206 -16.397  0.00  0.00    +0.363 HD
ENDBRANCH  18  22
BRANCH  21  24
ATOM     24  C   LIG    1       -4.057 -13.484 -17.233  0.00  0.00    +0.306 C 
ATOM     25  N   LIG    1       -4.016 -14.574 -16.916  0.00  0.00    -0.492 NA
ENDBRANCH  21  24
ENDBRANCH   1  16
TORSDOF 4
ENDMDL
MODEL 3
REMARK VINA RESULT:      -6.9      1.666      2.752
REMARK  Name = CHEMBL167172
REMARK                            x       y       z     vdW  Elec       q    Type
REMARK                         _______ _______ _______ _____ _____    ______ ____
ROOT
ATOM      1  C   LIG    1       -2.762  -9.901 -20.370  0.00  0.00    +0.581 C 
ATOM      2  N   LIG    1       -1.654  -9.141 -20.252  0.00  0.00    -0.733 N 
ATOM      3  H   LIG    1       -1.331  -8.890 -19.372  0.00  0.00    +0.396 HD
ATOM      4  O   LIG    1       -3.167 -10.217 -21.472  0.00  0.00    -0.557 OA
ENDROOT
BRANCH   2   5
ATOM      5  C   LIG    1       -0.940  -8.696 -21.450  0.00  0.00    +0.188 C 
ATOM      6  C   LIG    1       -0.066  -7.488 -21.104  0.00  0.00    +0.023 C 
ATOM      7  C   LIG    1        0.679  -7.022 -22.356  0.00  0.00    -0.014 C 
ATOM      8  C   LIG    1       -0.333  -6.626 -23.434  0.00  0.00    +0.012 C 
ATOM      9  C   LIG    1       -1.206  -7.833 -23.780  0.00  0.00    -0.009 C 
ATOM     10  C   LIG    1       -0.324  -8.969 -24.301  0.00  0.00    +0.012 C 
ATOM     11  C   LIG    1        0.688  -9.364 -23.224  0.00  0.00    -0.014 C 
ATOM     12  C   LIG    1        1.561  -8.157 -22.877  0.00  0.00    +0.015 C 
ATOM     13  C   LIG    1       -0.058  -9.831 -21.971  0.00  0.00    +0.023 C 
ATOM     14  C   LIG    1       -1.952  -8.300 -22.528  0.00  0.00    +0.018 C 
ENDBRANCH   2   5
BRANCH   1  16
ATOM     15  C   LIG    1       -3.428 -11.689 -18.778  0.00  0.00    +0.170 A 
ATOM     16  C   LIG    1       -3.481 -10.351 -19.162  0.00  0.00    -0.274 A 
ATOM     17  C   LIG    1       -4.216  -9.434 -18.404  0.00  0.00    +0.066 A 
ATOM     18  C   LIG    1       -4.890  -9.850 -17.273  0.00  0.00    -0.039 A 
ATOM     19  C   LIG    1       -4.842 -11.186 -16.881  0.00  0.00    +0.311 A 
ATOM     20  O   LIG    1       -5.505 -11.591 -15.769  0.00  0.00    -0.665 OA
ATOM     21  C   LIG    1       -4.107 -12.111 -17.637  0.00  0.00    -0.204 A 
BRANCH  18  22
ATOM     22  O   LIG    1       -5.603  -8.953 -16.539  0.00  0.00    -0.486 OA
ATOM     23  H   LIG    1       -5.905  -9.294 -15.686  0.00  0.00    +0.363 HD
ENDBRANCH  18  22
BRANCH  21  24
ATOM     24  C   LIG    1       -4.056 -13.485 -17.237  0.00  0.00    +0.306 C 
ATOM     25  N   LIG    1       -4.015 -14.575 -16.920  0.00  0.00    -0.492 NA
ENDBRANCH  21  24
ENDBRANCH   1  16
TORSDOF 4
ENDMDL
MODEL 4
REMARK VINA RESULT:      -6.4      2.051      3.339
REMARK  Name = CHEMBL167172
REMARK                            x       y       z     vdW  Elec       q    Type
REMARK                         _______ _______ _______ _____ _____    ______ ____
ROOT
ATOM      1  C   LIG    1       -2.843 -10.322 -21.258  0.00  0.00    +0.581 C 
ATOM      2  N   LIG    1       -1.874  -9.385 -21.242  0.00  0.00    -0.733 N 
ATOM      3  H   LIG    1       -1.438  -9.154 -20.407  0.00  0.00    +0.396 HD
ATOM      4  O   LIG    1       -3.391 -10.612 -22.305  0.00  0.00    -0.557 OA
ENDROOT
BRANCH   2   5
ATOM      5  C   LIG    1       -1.482  -8.715 -22.484  0.00  0.00    +0.188 C 
ATOM      6  C   LIG    1       -2.729  -8.416 -23.319  0.00  0.00    +0.023 C 
ATOM      7  C   LIG    1       -2.320  -7.718 -24.616  0.00  0.00    -0.014 C 
ATOM      8  C   LIG    1       -1.380  -8.628 -25.411  0.00  0.00    +0.012 C 
ATOM      9  C   LIG    1       -0.133  -8.926 -24.577  0.00  0.00    -0.009 C 
ATOM     10  C   LIG    1        0.585  -7.616 -24.246  0.00  0.00    +0.012 C 
ATOM     11  C   LIG    1       -0.355  -6.706 -23.452  0.00  0.00    -0.014 C 
ATOM     12  C   LIG    1       -1.602  -6.408 -24.286  0.00  0.00    +0.015 C 
ATOM     13  C   LIG    1       -0.764  -7.405 -22.154  0.00  0.00    +0.023 C 
ATOM     14  C   LIG    1       -0.542  -9.625 -23.279  0.00  0.00    +0.018 C 
ENDBRANCH   2   5
BRANCH   1  16
ATOM     15  C   LIG    1       -3.106 -12.379 -19.889  0.00  0.00    +0.170 A 
ATOM     16  C   LIG    1       -3.239 -10.997 -20.006  0.00  0.00    -0.274 A 
ATOM     17  C   LIG    1       -3.746 -10.249 -18.939  0.00  0.00    +0.066 A 
ATOM     18  C   LIG    1       -4.117 -10.876 -17.766  0.00  0.00    -0.039 A 
ATOM     19  C   LIG    1       -3.988 -12.257 -17.639  0.00  0.00    +0.311 A 
ATOM     20  O   LIG    1       -4.353 -12.870 -16.485  0.00  0.00    -0.665 OA
ATOM     21  C   LIG    1       -3.480 -13.013 -18.706  0.00  0.00    -0.204 A 
BRANCH  18  22
ATOM     22  O   LIG    1       -4.610 -10.143 -16.731  0.00  0.00    -0.486 OA
ATOM     23  H   LIG    1       -4.425  -9.196 -16.796  0.00  0.00    +0.363 HD
ENDBRANCH  18  22
BRANCH  21  24
ATOM     24  C   LIG    1       -3.346 -14.433 -18.579  0.00  0.00    +0.306 C 
ATOM     25  N   LIG    1       -3.240 -15.560 -18.478  0.00  0.00    -0.492 NA
ENDBRANCH  21  24
ENDBRANCH   1  16
TORSDOF 4
ENDMDL
MODEL 5
REMARK VINA RESULT:      -6.2      5.451      7.734
REMARK  Name = CHEMBL167172
REMARK                            x       y       z     vdW  Elec       q    Type
REMARK                         _______ _______ _______ _____ _____    ______ ____
ROOT
ATOM      1  C   LIG    1       -3.054 -15.532 -19.245  0.00  0.00    +0.581 C 
ATOM      2  N   LIG    1       -3.500 -15.976 -20.437  0.00  0.00    -0.733 N 
ATOM      3  H   LIG    1       -4.036 -15.396 -21.000  0.00  0.00    +0.396 HD
ATOM      4  O   LIG    1       -2.383 -16.260 -18.538  0.00  0.00    -0.557 OA
ENDROOT
BRANCH   2   5
ATOM      5  C   LIG    1       -3.177 -17.333 -20.881  0.00  0.00    +0.188 C 
ATOM      6  C   LIG    1       -3.298 -17.415 -22.405  0.00  0.00    +0.023 C 
ATOM      7  C   LIG    1       -2.961 -18.833 -22.869  0.00  0.00    -0.014 C 
ATOM      8  C   LIG    1       -3.934 -19.824 -22.227  0.00  0.00    +0.012 C 
ATOM      9  C   LIG    1       -3.813 -19.744 -20.704  0.00  0.00    -0.009 C 
ATOM     10  C   LIG    1       -2.383 -20.090 -20.287  0.00  0.00    +0.012 C 
ATOM     11  C   LIG    1       -1.409 -19.099 -20.929  0.00  0.00    -0.014 C 
ATOM     12  C   LIG    1       -1.531 -19.180 -22.452  0.00  0.00    +0.015 C 
ATOM     13  C   LIG    1       -1.747 -17.681 -20.465  0.00  0.00    +0.023 C 
ATOM     14  C   LIG    1       -4.150 -18.325 -20.240  0.00  0.00    +0.018 C 
ENDBRANCH   2   5
BRANCH   1  16
ATOM     15  C   LIG    1       -3.125 -13.079 -19.633  0.00  0.00    +0.170 A 
ATOM     16  C   LIG    1       -3.380 -14.164 -18.797  0.00  0.00    -0.274 A 
ATOM     17  C   LIG    1       -3.944 -13.957 -17.534  0.00  0.00    +0.066 A 
ATOM     18  C   LIG    1       -4.251 -12.679 -17.111  0.00  0.00    -0.039 A 
ATOM     19  C   LIG    1       -4.000 -11.588 -17.941  0.00  0.00    +0.311 A 
ATOM     20  O   LIG    1       -4.302 -10.334 -17.522  0.00  0.00    -0.665 OA
ATOM     21  C   LIG    1       -3.433 -11.789 -19.208  0.00  0.00    -0.204 A 
BRANCH  18  22
ATOM     22  O   LIG    1       -4.800 -12.484 -15.882  0.00  0.00    -0.486 OA
ATOM     23  H   LIG    1       -4.235 -12.768 -15.150  0.00  0.00    +0.363 HD
ENDBRANCH  18  22
BRANCH  21  24
ATOM     24  C   LIG    1       -3.174 -10.670 -20.063  0.00  0.00    +0.306 C 
ATOM     25  N   LIG    1       -2.967  -9.782 -20.742  0.00  0.00    -0.492 NA
ENDBRANCH  21  24
ENDBRANCH   1  16
TORSDOF 4
ENDMDL
MODEL 6
REMARK VINA RESULT:      -6.0      1.455      1.906
REMARK  Name = CHEMBL167172
REMARK                            x       y       z     vdW  Elec       q    Type
REMARK                         _______ _______ _______ _____ _____    ______ ____
ROOT
ATOM      1  C   LIG    1       -2.144 -10.135 -21.345  0.00  0.00    +0.581 C 
ATOM      2  N   LIG    1       -1.258  -9.186 -20.981  0.00  0.00    -0.733 N 
ATOM      3  H   LIG    1       -1.077  -9.028 -20.041  0.00  0.00    +0.396 HD
ATOM      4  O   LIG    1       -2.372 -10.334 -22.523  0.00  0.00    -0.557 OA
ENDROOT
BRANCH   2   5
ATOM      5  C   LIG    1       -0.571  -8.395 -22.003  0.00  0.00    +0.188 C 
ATOM      6  C   LIG    1        0.366  -9.301 -22.806  0.00  0.00    +0.023 C 
ATOM      7  C   LIG    1        1.084  -8.474 -23.873  0.00  0.00    -0.014 C 
ATOM      8  C   LIG    1        1.899  -7.367 -23.200  0.00  0.00    +0.012 C 
ATOM      9  C   LIG    1        0.962  -6.461 -22.399  0.00  0.00    -0.009 C 
ATOM     10  C   LIG    1       -0.070  -5.836 -23.338  0.00  0.00    +0.012 C 
ATOM     11  C   LIG    1       -0.884  -6.942 -24.012  0.00  0.00    -0.014 C 
ATOM     12  C   LIG    1        0.053  -7.848 -24.814  0.00  0.00    +0.015 C 
ATOM     13  C   LIG    1       -1.602  -7.769 -22.944  0.00  0.00    +0.023 C 
ATOM     14  C   LIG    1        0.244  -7.288 -21.330  0.00  0.00    +0.018 C 
ENDBRANCH   2   5
BRANCH   1  16
ATOM     15  C   LIG    1       -3.514 -10.293 -19.277  0.00  0.00    +0.170 A 
ATOM     16  C   LIG    1       -2.837 -10.933 -20.314  0.00  0.00    -0.274 A 
ATOM     17  C   LIG    1       -2.814 -12.329 -20.378  0.00  0.00    +0.066 A 
ATOM     18  C   LIG    1       -3.461 -13.080 -19.416  0.00  0.00    -0.039 A 
ATOM     19  C   LIG    1       -4.141 -12.449 -18.376  0.00  0.00    +0.311 A 
ATOM     20  O   LIG    1       -4.775 -13.189 -17.433  0.00  0.00    -0.665 OA
ATOM     21  C   LIG    1       -4.167 -11.049 -18.306  0.00  0.00    -0.204 A 
BRANCH  18  22
ATOM     22  O   LIG    1       -3.435 -14.439 -19.484  0.00  0.00    -0.486 OA
ATOM     23  H   LIG    1       -2.611 -14.832 -19.166  0.00  0.00    +0.363 HD
ENDBRANCH  18  22
BRANCH  21  24
ATOM     24  C   LIG    1       -4.864 -10.397 -17.238  0.00  0.00    +0.306 C 
ATOM     25  N   LIG    1       -5.417  -9.880 -16.391  0.00  0.00    -0.492 NA
ENDBRANCH  21  24
ENDBRANCH   1  16
TORSDOF 4
ENDMDL
MODEL 7
REMARK VINA RESULT:      -5.8      3.452      7.305
REMARK  Name = CHEMBL167172
REMARK                            x       y       z     vdW  Elec       q    Type
REMARK                         _______ _______ _______ _____ _____    ______ ____
ROOT
ATOM      1  C   LIG    1       -1.499  -9.487 -21.423  0.00  0.00    +0.581 C 
ATOM      2  N   LIG    1       -2.383 -10.144 -22.202  0.00  0.00    -0.733 N 
ATOM      3  H   LIG    1       -2.603  -9.798 -23.081  0.00  0.00    +0.396 HD
ATOM      4  O   LIG    1       -1.223  -9.919 -20.320  0.00  0.00    -0.557 OA
ENDROOT
BRANCH   2   5
ATOM      5  C   LIG    1       -3.011 -11.375 -21.719  0.00  0.00    +0.188 C 
ATOM      6  C   LIG    1       -1.931 -12.420 -21.431  0.00  0.00    +0.023 C 
ATOM      7  C   LIG    1       -2.587 -13.707 -20.928  0.00  0.00    -0.014 C 
ATOM      8  C   LIG    1       -3.544 -14.244 -21.995  0.00  0.00    +0.012 C 
ATOM      9  C   LIG    1       -4.624 -13.199 -22.282  0.00  0.00    -0.009 C 
ATOM     10  C   LIG    1       -5.404 -12.905 -21.000  0.00  0.00    +0.012 C 
ATOM     11  C   LIG    1       -4.447 -12.369 -19.932  0.00  0.00    -0.014 C 
ATOM     12  C   LIG    1       -3.367 -13.414 -19.645  0.00  0.00    +0.015 C 
ATOM     13  C   LIG    1       -3.791 -11.082 -20.436  0.00  0.00    +0.023 C 
ATOM     14  C   LIG    1       -3.968 -11.912 -22.786  0.00  0.00    +0.018 C 
ENDBRANCH   2   5
BRANCH   1  16
ATOM     15  C   LIG    1       -1.312  -7.652 -23.088  0.00  0.00    +0.170 A 
ATOM     16  C   LIG    1       -0.866  -8.246 -21.909  0.00  0.00    -0.274 A 
ATOM     17  C   LIG    1        0.181  -7.666 -21.186  0.00  0.00    +0.066 A 
ATOM     18  C   LIG    1        0.776  -6.504 -21.637  0.00  0.00    -0.039 A 
ATOM     19  C   LIG    1        0.336  -5.903 -22.815  0.00  0.00    +0.311 A 
ATOM     20  O   LIG    1        0.923  -4.762 -23.255  0.00  0.00    -0.665 OA
ATOM     21  C   LIG    1       -0.713  -6.480 -23.545  0.00  0.00    -0.204 A 
BRANCH  18  22
ATOM     22  O   LIG    1        1.795  -5.944 -20.930  0.00  0.00    -0.486 OA
ATOM     23  H   LIG    1        2.315  -6.579 -20.419  0.00  0.00    +0.363 HD
ENDBRANCH  18  22
BRANCH  21  24
ATOM     24  C   LIG    1       -1.168  -5.866 -24.756  0.00  0.00    +0.306 C 
ATOM     25  N   LIG    1       -1.529  -5.379 -25.717  0.00  0.00    -0.492 NA
ENDBRANCH  21  24
ENDBRANCH   1  16
TORSDOF 4
ENDMDL
MODEL 8
REMARK VINA RESULT:      -5.7      7.639     10.406
REMARK  Name = CHEMBL167172
REMARK                            x       y       z     vdW  Elec       q    Type
REMARK                         _______ _______ _______ _____ _____    ______ ____
ROOT
ATOM      1  C   LIG    1        5.970  -7.081 -18.978  0.00  0.00    +0.581 C 
ATOM      2  N   LIG    1        4.769  -7.008 -19.588  0.00  0.00    -0.733 N 
ATOM      3  H   LIG    1        4.210  -6.225 -19.464  0.00  0.00    +0.396 HD
ATOM      4  O   LIG    1        6.671  -8.062 -19.134  0.00  0.00    -0.557 OA
ENDROOT
BRANCH   2   5
ATOM      5  C   LIG    1        4.310  -8.109 -20.437  0.00  0.00    +0.188 C 
ATOM      6  C   LIG    1        2.920  -7.784 -20.989  0.00  0.00    +0.023 C 
ATOM      7  C   LIG    1        2.441  -8.935 -21.874  0.00  0.00    -0.014 C 
ATOM      8  C   LIG    1        2.373 -10.221 -21.047  0.00  0.00    +0.012 C 
ATOM      9  C   LIG    1        3.762 -10.547 -20.496  0.00  0.00    -0.009 C 
ATOM     10  C   LIG    1        4.739 -10.738 -21.657  0.00  0.00    +0.012 C 
ATOM     11  C   LIG    1        4.807  -9.452 -22.485  0.00  0.00    -0.014 C 
ATOM     12  C   LIG    1        3.418  -9.127 -23.035  0.00  0.00    +0.015 C 
ATOM     13  C   LIG    1        5.287  -8.301 -21.598  0.00  0.00    +0.023 C 
ATOM     14  C   LIG    1        4.242  -9.395 -19.610  0.00  0.00    +0.018 C 
ENDBRANCH   2   5
BRANCH   1  16
ATOM     15  C   LIG    1        6.902  -4.794 -18.704  0.00  0.00    +0.170 A 
ATOM     16  C   LIG    1        6.432  -5.970 -18.123  0.00  0.00    -0.274 A 
ATOM     17  C   LIG    1        6.399  -6.099 -16.731  0.00  0.00    +0.066 A 
ATOM     18  C   LIG    1        6.830  -5.063 -15.927  0.00  0.00    -0.039 A 
ATOM     19  C   LIG    1        7.301  -3.883 -16.498  0.00  0.00    +0.311 A 
ATOM     20  O   LIG    1        7.724  -2.867 -15.706  0.00  0.00    -0.665 OA
ATOM     21  C   LIG    1        7.338  -3.747 -17.894  0.00  0.00    -0.204 A 
BRANCH  18  22
ATOM     22  O   LIG    1        6.795  -5.194 -14.573  0.00  0.00    -0.486 OA
ATOM     23  H   LIG    1        7.204  -4.459 -14.096  0.00  0.00    +0.363 HD
ENDBRANCH  18  22
BRANCH  21  24
ATOM     24  C   LIG    1        7.822  -2.536 -18.485  0.00  0.00    +0.306 C 
ATOM     25  N   LIG    1        8.206  -1.575 -18.953  0.00  0.00    -0.492 NA
ENDBRANCH  21  24
ENDBRANCH   1  16
TORSDOF 4
ENDMDL
MODEL 9
REMARK VINA RESULT:      -5.7      5.032      6.991
REMARK  Name = CHEMBL167172
REMARK                            x       y       z     vdW  Elec       q    Type
REMARK                         _______ _______ _______ _____ _____    ______ ____
ROOT
ATOM      1  C   LIG    1       -3.206 -14.514 -19.781  0.00  0.00    +0.581 C 
ATOM      2  N   LIG    1       -3.733 -14.979 -20.932  0.00  0.00    -0.733 N 
ATOM      3  H   LIG    1       -4.279 -14.397 -21.484  0.00  0.00    +0.396 HD
ATOM      4  O   LIG    1       -2.521 -15.243 -19.089  0.00  0.00    -0.557 OA
ENDROOT
BRANCH   2   5
ATOM      5  C   LIG    1       -3.482 -16.360 -21.348  0.00  0.00    +0.188 C 
ATOM      6  C   LIG    1       -3.590 -17.286 -20.134  0.00  0.00    +0.023 C 
ATOM      7  C   LIG    1       -3.327 -18.729 -20.567  0.00  0.00    -0.014 C 
ATOM      8  C   LIG    1       -1.922 -18.834 -21.165  0.00  0.00    +0.012 C 
ATOM      9  C   LIG    1       -1.815 -17.909 -22.379  0.00  0.00    -0.009 C 
ATOM     10  C   LIG    1       -2.848 -18.322 -23.429  0.00  0.00    +0.012 C 
ATOM     11  C   LIG    1       -4.253 -18.218 -22.831  0.00  0.00    -0.014 C 
ATOM     12  C   LIG    1       -4.360 -19.142 -21.617  0.00  0.00    +0.015 C 
ATOM     13  C   LIG    1       -4.515 -16.774 -22.397  0.00  0.00    +0.023 C 
ATOM     14  C   LIG    1       -2.077 -16.466 -21.946  0.00  0.00    +0.018 C 
ENDBRANCH   2   5
BRANCH   1  16
ATOM     15  C   LIG    1       -4.156 -12.865 -18.183  0.00  0.00    +0.170 A 
ATOM     16  C   LIG    1       -3.459 -13.122 -19.362  0.00  0.00    -0.274 A 
ATOM     17  C   LIG    1       -3.000 -12.061 -20.149  0.00  0.00    +0.066 A 
ATOM     18  C   LIG    1       -3.233 -10.756 -19.761  0.00  0.00    -0.039 A 
ATOM     19  C   LIG    1       -3.929 -10.490 -18.583  0.00  0.00    +0.311 A 
ATOM     20  O   LIG    1       -4.157  -9.208 -18.204  0.00  0.00    -0.665 OA
ATOM     21  C   LIG    1       -4.393 -11.550 -17.790  0.00  0.00    -0.204 A 
BRANCH  18  22
ATOM     22  O   LIG    1       -2.784  -9.728 -20.530  0.00  0.00    -0.486 OA
ATOM     23  H   LIG    1       -2.994  -9.818 -21.469  0.00  0.00    +0.363 HD
ENDBRANCH  18  22
BRANCH  21  24
ATOM     24  C   LIG    1       -5.109 -11.280 -16.579  0.00  0.00    +0.306 C 
ATOM     25  N   LIG    1       -5.677 -11.066 -15.619  0.00  0.00    -0.492 NA
ENDBRANCH  21  24
ENDBRANCH   1  16
TORSDOF 4
ENDMDL
