MODEL 1
REMARK VINA RESULT:      -8.9      0.000      0.000
REMARK  Name = CHEMBL197115
REMARK                            x       y       z     vdW  Elec       q    Type
REMARK                         _______ _______ _______ _____ _____    ______ ____
ROOT
ATOM      1  C   LIG    1       -5.867  -1.058 -19.468  0.00  0.00    -0.087 A 
ATOM      2  C   LIG    1       -5.112  -1.523 -20.552  0.00  0.00    -0.048 A 
ATOM      3  C   LIG    1       -4.076  -0.764 -21.046  0.00  0.00    +0.034 A 
ATOM      4  C   LIG    1       -3.778   0.467 -20.473  0.00  0.00    +0.012 A 
ATOM      5  C   LIG    1       -4.524   0.938 -19.393  0.00  0.00    +0.273 A 
ATOM      6  O   LIG    1       -4.228   2.142 -18.834  0.00  0.00    -0.674 OA
ATOM      7  C   LIG    1       -5.568   0.185 -18.895  0.00  0.00    -0.137 A 
ENDROOT
BRANCH   7   8
ATOM      8  N   LIG    1       -6.366   0.686 -17.753  0.00  0.00    +0.078 N 
ATOM      9  O   LIG    1       -7.232   1.508 -17.936  0.00  0.00    -0.173 OA
ATOM     10  O   LIG    1       -6.152   0.272 -16.638  0.00  0.00    -0.172 OA
ENDBRANCH   7   8
BRANCH   1  11
ATOM     11  C   LIG    1       -6.973  -1.867 -18.939  0.00  0.00    +0.386 C 
ATOM     12  O   LIG    1       -7.996  -1.329 -18.572  0.00  0.00    -0.436 OA
BRANCH  11  13
ATOM     13  C   LIG    1       -6.837  -3.365 -18.853  0.00  0.00    +0.099 C 
BRANCH  13  17
ATOM     14  C   LIG    1       -9.748  -5.209 -21.376  0.00  0.00    -0.005 A 
ATOM     15  C   LIG    1       -8.849  -4.302 -21.906  0.00  0.00    +0.001 A 
ATOM     16  C   LIG    1       -7.908  -3.705 -21.089  0.00  0.00    +0.013 A 
ATOM     17  C   LIG    1       -7.864  -4.015 -19.743  0.00  0.00    -0.070 A 
ATOM     18  C   LIG    1       -8.763  -4.922 -19.213  0.00  0.00    +0.013 A 
ATOM     19  C   LIG    1       -9.704  -5.520 -20.030  0.00  0.00    +0.001 A 
ENDBRANCH  13  17
ENDBRANCH  11  13
ENDBRANCH   1  11
BRANCH   4  20
ATOM     20  O   LIG    1       -2.755   1.212 -20.965  0.00  0.00    -0.481 OA
ATOM     21  H   LIG    1       -1.985   1.258 -20.381  0.00  0.00    +0.372 HD
ENDBRANCH   4  20
TORSDOF 5
ENDMDL
MODEL 2
REMARK VINA RESULT:      -6.8     10.116     11.992
REMARK  Name = CHEMBL197115
REMARK                            x       y       z     vdW  Elec       q    Type
REMARK                         _______ _______ _______ _____ _____    ______ ____
ROOT
ATOM      1  C   LIG    1       -3.805 -11.471 -19.602  0.00  0.00    -0.087 A 
ATOM      2  C   LIG    1       -4.157 -10.438 -18.726  0.00  0.00    -0.048 A 
ATOM      3  C   LIG    1       -4.506 -10.726 -17.426  0.00  0.00    +0.034 A 
ATOM      4  C   LIG    1       -4.512 -12.042 -16.980  0.00  0.00    +0.012 A 
ATOM      5  C   LIG    1       -4.162 -13.078 -17.847  0.00  0.00    +0.273 A 
ATOM      6  O   LIG    1       -4.168 -14.365 -17.406  0.00  0.00    -0.674 OA
ATOM      7  C   LIG    1       -3.816 -12.798 -19.153  0.00  0.00    -0.137 A 
ENDROOT
BRANCH   7   8
ATOM      8  N   LIG    1       -3.452 -13.896 -20.076  0.00  0.00    +0.078 N 
ATOM      9  O   LIG    1       -4.239 -14.267 -20.915  0.00  0.00    -0.173 OA
ATOM     10  O   LIG    1       -2.366 -14.422 -19.992  0.00  0.00    -0.172 OA
ENDBRANCH   7   8
BRANCH   1  11
ATOM     11  C   LIG    1       -3.432 -11.166 -20.990  0.00  0.00    +0.386 C 
ATOM     12  O   LIG    1       -4.289 -10.872 -21.797  0.00  0.00    -0.436 OA
BRANCH  11  13
ATOM     13  C   LIG    1       -1.986 -11.218 -21.411  0.00  0.00    +0.099 C 
BRANCH  13  17
ATOM     14  C   LIG    1       -0.431  -7.247 -21.646  0.00  0.00    -0.005 A 
ATOM     15  C   LIG    1       -1.140  -7.775 -22.709  0.00  0.00    +0.001 A 
ATOM     16  C   LIG    1       -1.643  -9.061 -22.633  0.00  0.00    +0.013 A 
ATOM     17  C   LIG    1       -1.437  -9.817 -21.495  0.00  0.00    -0.070 A 
ATOM     18  C   LIG    1       -0.728  -9.289 -20.432  0.00  0.00    +0.013 A 
ATOM     19  C   LIG    1       -0.227  -8.003 -20.508  0.00  0.00    +0.001 A 
ENDBRANCH  13  17
ENDBRANCH  11  13
ENDBRANCH   1  11
BRANCH   4  20
ATOM     20  O   LIG    1       -4.857 -12.321 -15.697  0.00  0.00    -0.481 OA
ATOM     21  H   LIG    1       -4.993 -11.537 -15.147  0.00  0.00    +0.372 HD
ENDBRANCH   4  20
TORSDOF 5
ENDMDL
MODEL 3
REMARK VINA RESULT:      -6.7     12.077     13.793
REMARK  Name = CHEMBL197115
REMARK                            x       y       z     vdW  Elec       q    Type
REMARK                         _______ _______ _______ _____ _____    ______ ____
ROOT
ATOM      1  C   LIG    1       -3.172 -14.166 -19.462  0.00  0.00    -0.087 A 
ATOM      2  C   LIG    1       -3.377 -14.879 -18.275  0.00  0.00    -0.048 A 
ATOM      3  C   LIG    1       -3.890 -14.242 -17.168  0.00  0.00    +0.034 A 
ATOM      4  C   LIG    1       -4.202 -12.889 -17.224  0.00  0.00    +0.012 A 
ATOM      5  C   LIG    1       -4.001 -12.170 -18.402  0.00  0.00    +0.273 A 
ATOM      6  O   LIG    1       -4.310 -10.847 -18.453  0.00  0.00    -0.674 OA
ATOM      7  C   LIG    1       -3.482 -12.801 -19.515  0.00  0.00    -0.137 A 
ENDROOT
BRANCH   7   8
ATOM      8  N   LIG    1       -3.261 -12.039 -20.765  0.00  0.00    +0.078 N 
ATOM      9  O   LIG    1       -4.173 -11.875 -21.541  0.00  0.00    -0.173 OA
ATOM     10  O   LIG    1       -2.170 -11.580 -21.009  0.00  0.00    -0.172 OA
ENDBRANCH   7   8
BRANCH   1  11
ATOM     11  C   LIG    1       -2.624 -14.844 -20.644  0.00  0.00    +0.386 C 
ATOM     12  O   LIG    1       -1.442 -15.109 -20.698  0.00  0.00    -0.436 OA
BRANCH  11  13
ATOM     13  C   LIG    1       -3.532 -15.210 -21.791  0.00  0.00    +0.099 C 
BRANCH  13  17
ATOM     14  C   LIG    1       -5.121 -19.124 -21.154  0.00  0.00    -0.005 A 
ATOM     15  C   LIG    1       -4.152 -18.624 -20.303  0.00  0.00    +0.001 A 
ATOM     16  C   LIG    1       -3.637 -17.358 -20.510  0.00  0.00    +0.013 A 
ATOM     17  C   LIG    1       -4.091 -16.591 -21.566  0.00  0.00    -0.070 A 
ATOM     18  C   LIG    1       -5.060 -17.091 -22.417  0.00  0.00    +0.013 A 
ATOM     19  C   LIG    1       -5.575 -18.357 -22.210  0.00  0.00    +0.001 A 
ENDBRANCH  13  17
ENDBRANCH  11  13
ENDBRANCH   1  11
BRANCH   4  20
ATOM     20  O   LIG    1       -4.707 -12.265 -16.129  0.00  0.00    -0.481 OA
ATOM     21  H   LIG    1       -4.955 -12.866 -15.413  0.00  0.00    +0.372 HD
ENDBRANCH   4  20
TORSDOF 5
ENDMDL
MODEL 4
REMARK VINA RESULT:      -6.3     11.233     12.777
REMARK  Name = CHEMBL197115
REMARK                            x       y       z     vdW  Elec       q    Type
REMARK                         _______ _______ _______ _____ _____    ______ ____
ROOT
ATOM      1  C   LIG    1       -3.904 -12.793 -19.241  0.00  0.00    -0.087 A 
ATOM      2  C   LIG    1       -4.280 -13.361 -18.017  0.00  0.00    -0.048 A 
ATOM      3  C   LIG    1       -4.565 -12.552 -16.941  0.00  0.00    +0.034 A 
ATOM      4  C   LIG    1       -4.477 -11.171 -17.064  0.00  0.00    +0.012 A 
ATOM      5  C   LIG    1       -4.103 -10.597 -18.279  0.00  0.00    +0.273 A 
ATOM      6  O   LIG    1       -4.021  -9.244 -18.395  0.00  0.00    -0.674 OA
ATOM      7  C   LIG    1       -3.812 -11.401 -19.362  0.00  0.00    -0.137 A 
ENDROOT
BRANCH   7   8
ATOM      8  N   LIG    1       -3.408 -10.794 -20.650  0.00  0.00    +0.078 N 
ATOM      9  O   LIG    1       -2.237 -10.643 -20.907  0.00  0.00    -0.173 OA
ATOM     10  O   LIG    1       -4.251 -10.450 -21.447  0.00  0.00    -0.172 OA
ENDBRANCH   7   8
BRANCH   1  11
ATOM     11  C   LIG    1       -3.600 -13.655 -20.391  0.00  0.00    +0.386 C 
ATOM     12  O   LIG    1       -4.376 -13.720 -21.321  0.00  0.00    -0.436 OA
BRANCH  11  13
ATOM     13  C   LIG    1       -2.326 -14.459 -20.414  0.00  0.00    +0.099 C 
BRANCH  13  17
ATOM     14  C   LIG    1       -3.205 -18.491 -21.516  0.00  0.00    -0.005 A 
ATOM     15  C   LIG    1       -2.462 -17.690 -22.363  0.00  0.00    +0.001 A 
ATOM     16  C   LIG    1       -2.179 -16.385 -22.006  0.00  0.00    +0.013 A 
ATOM     17  C   LIG    1       -2.637 -15.881 -20.804  0.00  0.00    -0.070 A 
ATOM     18  C   LIG    1       -3.380 -16.683 -19.956  0.00  0.00    +0.013 A 
ATOM     19  C   LIG    1       -3.663 -17.988 -20.312  0.00  0.00    +0.001 A 
ENDBRANCH  13  17
ENDBRANCH  11  13
ENDBRANCH   1  11
BRANCH   4  20
ATOM     20  O   LIG    1       -4.758 -10.378 -15.999  0.00  0.00    -0.481 OA
ATOM     21  H   LIG    1       -5.385  -9.667 -16.192  0.00  0.00    +0.372 HD
ENDBRANCH   4  20
TORSDOF 5
ENDMDL
MODEL 5
REMARK VINA RESULT:      -6.0      9.257     10.211
REMARK  Name = CHEMBL197115
REMARK                            x       y       z     vdW  Elec       q    Type
REMARK                         _______ _______ _______ _____ _____    ______ ____
ROOT
ATOM      1  C   LIG    1       -1.693  -9.851 -21.518  0.00  0.00    -0.087 A 
ATOM      2  C   LIG    1       -0.894  -9.682 -20.381  0.00  0.00    -0.048 A 
ATOM      3  C   LIG    1       -0.107  -8.561 -20.252  0.00  0.00    +0.034 A 
ATOM      4  C   LIG    1       -0.101  -7.594 -21.250  0.00  0.00    +0.012 A 
ATOM      5  C   LIG    1       -0.894  -7.754 -22.386  0.00  0.00    +0.273 A 
ATOM      6  O   LIG    1       -0.887  -6.804 -23.360  0.00  0.00    -0.674 OA
ATOM      7  C   LIG    1       -1.682  -8.878 -22.526  0.00  0.00    -0.137 A 
ENDROOT
BRANCH   7   8
ATOM      8  N   LIG    1       -2.520  -9.053 -23.734  0.00  0.00    +0.078 N 
ATOM      9  O   LIG    1       -3.642  -8.606 -23.761  0.00  0.00    -0.173 OA
ATOM     10  O   LIG    1       -2.081  -9.642 -24.694  0.00  0.00    -0.172 OA
ENDBRANCH   7   8
BRANCH   1  11
ATOM     11  C   LIG    1       -2.534 -11.047 -21.658  0.00  0.00    +0.386 C 
ATOM     12  O   LIG    1       -2.093 -12.038 -22.200  0.00  0.00    -0.436 OA
BRANCH  11  13
ATOM     13  C   LIG    1       -3.945 -11.043 -21.127  0.00  0.00    +0.099 C 
BRANCH  13  17
ATOM     14  C   LIG    1       -3.991 -12.701 -17.191  0.00  0.00    -0.005 A 
ATOM     15  C   LIG    1       -4.021 -11.329 -17.364  0.00  0.00    +0.001 A 
ATOM     16  C   LIG    1       -4.005 -10.793 -18.637  0.00  0.00    +0.013 A 
ATOM     17  C   LIG    1       -3.960 -11.628 -19.738  0.00  0.00    -0.070 A 
ATOM     18  C   LIG    1       -3.930 -13.000 -19.565  0.00  0.00    +0.013 A 
ATOM     19  C   LIG    1       -3.947 -13.536 -18.292  0.00  0.00    +0.001 A 
ENDBRANCH  13  17
ENDBRANCH  11  13
ENDBRANCH   1  11
BRANCH   4  20
ATOM     20  O   LIG    1        0.677  -6.490 -21.118  0.00  0.00    -0.481 OA
ATOM     21  H   LIG    1        1.343  -6.392 -21.812  0.00  0.00    +0.372 HD
ENDBRANCH   4  20
TORSDOF 5
ENDMDL
MODEL 6
REMARK VINA RESULT:      -6.0     11.489     13.221
REMARK  Name = CHEMBL197115
REMARK                            x       y       z     vdW  Elec       q    Type
REMARK                         _______ _______ _______ _____ _____    ______ ____
ROOT
ATOM      1  C   LIG    1       -3.021 -13.799 -19.893  0.00  0.00    -0.087 A 
ATOM      2  C   LIG    1       -3.199 -14.662 -18.804  0.00  0.00    -0.048 A 
ATOM      3  C   LIG    1       -2.566 -15.884 -18.783  0.00  0.00    +0.034 A 
ATOM      4  C   LIG    1       -1.751 -16.266 -19.841  0.00  0.00    +0.012 A 
ATOM      5  C   LIG    1       -1.568 -15.413 -20.930  0.00  0.00    +0.273 A 
ATOM      6  O   LIG    1       -0.768 -15.790 -21.963  0.00  0.00    -0.674 OA
ATOM      7  C   LIG    1       -2.203 -14.188 -20.961  0.00  0.00    -0.137 A 
ENDROOT
BRANCH   7   8
ATOM      8  N   LIG    1       -2.016 -13.284 -22.118  0.00  0.00    +0.078 N 
ATOM      9  O   LIG    1       -1.122 -12.471 -22.111  0.00  0.00    -0.173 OA
ATOM     10  O   LIG    1       -2.757 -13.358 -23.071  0.00  0.00    -0.172 OA
ENDBRANCH   7   8
BRANCH   1  11
ATOM     11  C   LIG    1       -3.696 -12.495 -19.917  0.00  0.00    +0.386 C 
ATOM     12  O   LIG    1       -4.767 -12.377 -20.474  0.00  0.00    -0.436 OA
BRANCH  11  13
ATOM     13  C   LIG    1       -3.057 -11.303 -19.252  0.00  0.00    +0.099 C 
BRANCH  13  17
ATOM     14  C   LIG    1       -5.809  -9.574 -16.479  0.00  0.00    -0.005 A 
ATOM     15  C   LIG    1       -5.433 -10.898 -16.345  0.00  0.00    +0.001 A 
ATOM     16  C   LIG    1       -4.543 -11.458 -17.243  0.00  0.00    +0.013 A 
ATOM     17  C   LIG    1       -4.029 -10.694 -18.274  0.00  0.00    -0.070 A 
ATOM     18  C   LIG    1       -4.405  -9.370 -18.408  0.00  0.00    +0.013 A 
ATOM     19  C   LIG    1       -5.294  -8.810 -17.510  0.00  0.00    +0.001 A 
ENDBRANCH  13  17
ENDBRANCH  11  13
ENDBRANCH   1  11
BRANCH   4  20
ATOM     20  O   LIG    1       -1.130 -17.473 -19.815  0.00  0.00    -0.481 OA
ATOM     21  H   LIG    1       -0.658 -17.655 -18.991  0.00  0.00    +0.372 HD
ENDBRANCH   4  20
TORSDOF 5
ENDMDL
MODEL 7
REMARK VINA RESULT:      -6.0     10.089     11.106
REMARK  Name = CHEMBL197115
REMARK                            x       y       z     vdW  Elec       q    Type
REMARK                         _______ _______ _______ _____ _____    ______ ____
ROOT
ATOM      1  C   LIG    1        2.498  -9.018 -20.901  0.00  0.00    -0.087 A 
ATOM      2  C   LIG    1        3.020 -10.187 -20.334  0.00  0.00    -0.048 A 
ATOM      3  C   LIG    1        4.134 -10.123 -19.529  0.00  0.00    +0.034 A 
ATOM      4  C   LIG    1        4.746  -8.901 -19.279  0.00  0.00    +0.012 A 
ATOM      5  C   LIG    1        4.232  -7.731 -19.840  0.00  0.00    +0.273 A 
ATOM      6  O   LIG    1        4.833  -6.537 -19.590  0.00  0.00    -0.674 OA
ATOM      7  C   LIG    1        3.118  -7.787 -20.652  0.00  0.00    -0.137 A 
ENDROOT
BRANCH   7   8
ATOM      8  N   LIG    1        2.575  -6.548 -21.254  0.00  0.00    +0.078 N 
ATOM      9  O   LIG    1        1.703  -5.933 -20.686  0.00  0.00    -0.173 OA
ATOM     10  O   LIG    1        3.004  -6.151 -22.312  0.00  0.00    -0.172 OA
ENDBRANCH   7   8
BRANCH   1  11
ATOM     11  C   LIG    1        1.308  -9.083 -21.761  0.00  0.00    +0.386 C 
ATOM     12  O   LIG    1        1.419  -9.405 -22.925  0.00  0.00    -0.436 OA
BRANCH  11  13
ATOM     13  C   LIG    1       -0.049  -8.750 -21.197  0.00  0.00    +0.099 C 
BRANCH  13  17
ATOM     14  C   LIG    1       -2.597  -7.382 -24.341  0.00  0.00    -0.005 A 
ATOM     15  C   LIG    1       -1.460  -6.667 -24.011  0.00  0.00    +0.001 A 
ATOM     16  C   LIG    1       -0.637  -7.109 -22.993  0.00  0.00    +0.013 A 
ATOM     17  C   LIG    1       -0.948  -8.267 -22.305  0.00  0.00    -0.070 A 
ATOM     18  C   LIG    1       -2.085  -8.982 -22.635  0.00  0.00    +0.013 A 
ATOM     19  C   LIG    1       -2.908  -8.540 -23.653  0.00  0.00    +0.001 A 
ENDBRANCH  13  17
ENDBRANCH  11  13
ENDBRANCH   1  11
BRANCH   4  20
ATOM     20  O   LIG    1        5.845  -8.844 -18.485  0.00  0.00    -0.481 OA
ATOM     21  H   LIG    1        6.529  -9.490 -18.712  0.00  0.00    +0.372 HD
ENDBRANCH   4  20
TORSDOF 5
ENDMDL
