MODEL 1
REMARK VINA RESULT:      -6.6      0.000      0.000
REMARK  Name = CHEMBL1091983
REMARK                            x       y       z     vdW  Elec       q    Type
REMARK                         _______ _______ _______ _____ _____    ______ ____
ROOT
ATOM      1  C   LIG    1        7.706  -4.054 -19.456  0.00  0.00    +0.109 A 
ATOM      2  C   LIG    1        7.146  -5.256 -18.947  0.00  0.00    -0.216 A 
ATOM      3  C   LIG    1        6.772  -5.250 -17.583  0.00  0.00    +0.014 A 
ATOM      4  S   LIG    1        6.129  -6.883 -17.322  0.00  0.00    +0.115 S 
ATOM      5  C   LIG    1        6.361  -7.520 -18.973  0.00  0.00    -0.271 A 
ATOM      6  C   LIG    1        6.937  -4.143 -16.779  0.00  0.00    -0.164 A 
ATOM      7  C   LIG    1        7.487  -2.988 -17.310  0.00  0.00    +0.331 A 
ATOM      8  O   LIG    1        7.655  -1.887 -16.531  0.00  0.00    -0.619 OA
ATOM      9  C   LIG    1        6.912  -6.462 -19.632  0.00  0.00    +0.104 A 
ATOM     10 CL   LIG    1        7.327  -6.604 -21.311  0.00  0.00    -0.033 Cl
ATOM     11  C   LIG    1        7.866  -2.966 -18.657  0.00  0.00    +0.019 A 
ENDROOT
BRANCH   6  12
ATOM     12  N   LIG    1        6.528  -4.187 -15.357  0.00  0.00    +0.061 N 
ATOM     13  O   LIG    1        6.991  -5.028 -14.621  0.00  0.00    -0.160 OA
ATOM     14  O   LIG    1        5.731  -3.384 -14.932  0.00  0.00    -0.159 OA
ENDBRANCH   6  12
BRANCH   5  15
ATOM     15  C   LIG    1        6.039  -8.852 -19.492  0.00  0.00    +0.568 C 
ATOM     16  O   LIG    1        6.930  -9.591 -19.864  0.00  0.00    -0.486 OA
BRANCH  15  17
ATOM     17  O   LIG    1        4.754  -9.257 -19.557  0.00  0.00    -0.342 OA
BRANCH  17  18
ATOM     18  C   LIG    1        4.128  -9.224 -20.841  0.00  0.00    +0.367 C 
BRANCH  18  19
ATOM     19  C   LIG    1        2.971  -8.260 -20.811  0.00  0.00    -0.035 A 
ATOM     20  C   LIG    1        3.060  -6.942 -20.723  0.00  0.00    +0.216 A 
ATOM     21  O   LIG    1        1.805  -6.431 -20.726  0.00  0.00    -0.241 OA
ATOM     22  C   LIG    1        0.942  -7.457 -20.818  0.00  0.00    +0.573 A 
ATOM     23  O   LIG    1       -0.271  -7.372 -20.847  0.00  0.00    -0.420 OA
ATOM     24  O   LIG    1        1.658  -8.591 -20.876  0.00  0.00    -0.232 OA
ENDBRANCH  18  19
ENDBRANCH  17  18
ENDBRANCH  15  17
ENDBRANCH   5  15
BRANCH  11  25
ATOM     25  O   LIG    1        8.407  -1.832 -19.176  0.00  0.00    -0.478 OA
ATOM     26  H   LIG    1        7.894  -1.032 -18.996  0.00  0.00    +0.379 HD
ENDBRANCH  11  25
TORSDOF 6
ENDMDL
MODEL 2
REMARK VINA RESULT:      -6.4      7.034      9.808
REMARK  Name = CHEMBL1091983
REMARK                            x       y       z     vdW  Elec       q    Type
REMARK                         _______ _______ _______ _____ _____    ______ ____
ROOT
ATOM      1  C   LIG    1        0.057  -7.528 -21.012  0.00  0.00    +0.109 A 
ATOM      2  C   LIG    1       -0.995  -8.193 -21.699  0.00  0.00    -0.216 A 
ATOM      3  C   LIG    1       -1.311  -7.708 -22.990  0.00  0.00    +0.014 A 
ATOM      4  S   LIG    1       -2.637  -8.764 -23.515  0.00  0.00    +0.115 S 
ATOM      5  C   LIG    1       -2.741  -9.793 -22.061  0.00  0.00    -0.271 A 
ATOM      6  C   LIG    1       -0.643  -6.647 -23.562  0.00  0.00    -0.164 A 
ATOM      7  C   LIG    1        0.377  -6.024 -22.863  0.00  0.00    +0.331 A 
ATOM      8  O   LIG    1        1.046  -4.977 -23.413  0.00  0.00    -0.619 OA
ATOM      9  C   LIG    1       -1.767  -9.282 -21.257  0.00  0.00    +0.104 A 
ATOM     10 CL   LIG    1       -1.481  -9.972 -19.690  0.00  0.00    -0.033 Cl
ATOM     11  C   LIG    1        0.710  -6.482 -21.584  0.00  0.00    +0.019 A 
ENDROOT
BRANCH   6  12
ATOM     12  N   LIG    1       -1.012  -6.178 -24.917  0.00  0.00    +0.061 N 
ATOM     13  O   LIG    1       -1.930  -5.405 -25.060  0.00  0.00    -0.160 OA
ATOM     14  O   LIG    1       -0.396  -6.570 -25.880  0.00  0.00    -0.159 OA
ENDBRANCH   6  12
BRANCH   5  15
ATOM     15  C   LIG    1       -3.650 -10.911 -21.797  0.00  0.00    +0.568 C 
ATOM     16  O   LIG    1       -4.807 -10.856 -22.170  0.00  0.00    -0.486 OA
BRANCH  15  17
ATOM     17  O   LIG    1       -3.205 -12.001 -21.139  0.00  0.00    -0.342 OA
BRANCH  17  18
ATOM     18  C   LIG    1       -4.178 -12.782 -20.443  0.00  0.00    +0.367 C 
BRANCH  18  19
ATOM     19  C   LIG    1       -4.229 -12.352 -19.000  0.00  0.00    -0.035 A 
ATOM     20  C   LIG    1       -3.908 -13.099 -17.956  0.00  0.00    +0.216 A 
ATOM     21  O   LIG    1       -4.085 -12.358 -16.834  0.00  0.00    -0.241 OA
ATOM     22  C   LIG    1       -4.519 -11.142 -17.207  0.00  0.00    +0.573 A 
ATOM     23  O   LIG    1       -4.782 -10.217 -16.464  0.00  0.00    -0.420 OA
ATOM     24  O   LIG    1       -4.605 -11.131 -18.547  0.00  0.00    -0.232 OA
ENDBRANCH  18  19
ENDBRANCH  17  18
ENDBRANCH  15  17
ENDBRANCH   5  15
BRANCH  11  25
ATOM     25  O   LIG    1        1.711  -5.868 -20.898  0.00  0.00    -0.478 OA
ATOM     26  H   LIG    1        2.541  -5.797 -21.390  0.00  0.00    +0.379 HD
ENDBRANCH  11  25
TORSDOF 6
ENDMDL
MODEL 3
REMARK VINA RESULT:      -6.4     10.802     13.302
REMARK  Name = CHEMBL1091983
REMARK                            x       y       z     vdW  Elec       q    Type
REMARK                         _______ _______ _______ _____ _____    ______ ____
ROOT
ATOM      1  C   LIG    1       -3.887 -13.836 -17.762  0.00  0.00    +0.109 A 
ATOM      2  C   LIG    1       -3.322 -13.893 -19.064  0.00  0.00    -0.216 A 
ATOM      3  C   LIG    1       -3.158 -12.659 -19.736  0.00  0.00    +0.014 A 
ATOM      4  S   LIG    1       -2.443 -13.125 -21.292  0.00  0.00    +0.115 S 
ATOM      5  C   LIG    1       -2.377 -14.889 -21.028  0.00  0.00    -0.271 A 
ATOM      6  C   LIG    1       -3.524 -11.458 -19.168  0.00  0.00    -0.164 A 
ATOM      7  C   LIG    1       -4.071 -11.440 -17.897  0.00  0.00    +0.331 A 
ATOM      8  O   LIG    1       -4.436 -10.264 -17.323  0.00  0.00    -0.619 OA
ATOM      9  C   LIG    1       -2.900 -15.029 -19.777  0.00  0.00    +0.104 A 
ATOM     10 CL   LIG    1       -3.045 -16.606 -19.067  0.00  0.00    -0.033 Cl
ATOM     11  C   LIG    1       -4.245 -12.647 -17.209  0.00  0.00    +0.019 A 
ENDROOT
BRANCH   6  12
ATOM     12  N   LIG    1       -3.331 -10.193 -19.914  0.00  0.00    +0.061 N 
ATOM     13  O   LIG    1       -4.022  -9.945 -20.874  0.00  0.00    -0.160 OA
ATOM     14  O   LIG    1       -2.481  -9.408 -19.562  0.00  0.00    -0.159 OA
ENDBRANCH   6  12
BRANCH   5  15
ATOM     15  C   LIG    1       -1.883 -15.930 -21.933  0.00  0.00    +0.568 C 
ATOM     16  O   LIG    1       -0.686 -16.085 -22.086  0.00  0.00    -0.486 OA
BRANCH  15  17
ATOM     17  O   LIG    1       -2.755 -16.717 -22.596  0.00  0.00    -0.342 OA
BRANCH  17  18
ATOM     18  C   LIG    1       -2.620 -18.128 -22.420  0.00  0.00    +0.367 C 
BRANCH  18  19
ATOM     19  C   LIG    1       -3.906 -18.691 -21.873  0.00  0.00    -0.035 A 
ATOM     20  C   LIG    1       -5.123 -18.417 -22.313  0.00  0.00    +0.216 A 
ATOM     21  O   LIG    1       -6.012 -19.118 -21.567  0.00  0.00    -0.241 OA
ATOM     22  C   LIG    1       -5.320 -19.829 -20.661  0.00  0.00    +0.573 A 
ATOM     23  O   LIG    1       -5.791 -20.574 -19.824  0.00  0.00    -0.420 OA
ATOM     24  O   LIG    1       -4.015 -19.573 -20.849  0.00  0.00    -0.232 OA
ENDBRANCH  18  19
ENDBRANCH  17  18
ENDBRANCH  15  17
ENDBRANCH   5  15
BRANCH  11  25
ATOM     25  O   LIG    1       -4.784 -12.628 -15.961  0.00  0.00    -0.478 OA
ATOM     26  H   LIG    1       -5.240 -13.446 -15.716  0.00  0.00    +0.379 HD
ENDBRANCH  11  25
TORSDOF 6
ENDMDL
MODEL 4
REMARK VINA RESULT:      -6.3      6.853     11.105
REMARK  Name = CHEMBL1091983
REMARK                            x       y       z     vdW  Elec       q    Type
REMARK                         _______ _______ _______ _____ _____    ______ ____
ROOT
ATOM      1  C   LIG    1       -3.496 -13.489 -18.424  0.00  0.00    +0.109 A 
ATOM      2  C   LIG    1       -3.394 -12.440 -19.378  0.00  0.00    -0.216 A 
ATOM      3  C   LIG    1       -3.935 -11.189 -19.000  0.00  0.00    +0.014 A 
ATOM      4  S   LIG    1       -3.626 -10.160 -20.413  0.00  0.00    +0.115 S 
ATOM      5  C   LIG    1       -2.812 -11.370 -21.441  0.00  0.00    -0.271 A 
ATOM      6  C   LIG    1       -4.533 -10.985 -17.775  0.00  0.00    -0.164 A 
ATOM      7  C   LIG    1       -4.614 -12.030 -16.871  0.00  0.00    +0.331 A 
ATOM      8  O   LIG    1       -5.199 -11.844 -15.658  0.00  0.00    -0.619 OA
ATOM      9  C   LIG    1       -2.818 -12.487 -20.660  0.00  0.00    +0.104 A 
ATOM     10 CL   LIG    1       -2.118 -13.963 -21.246  0.00  0.00    -0.033 Cl
ATOM     11  C   LIG    1       -4.087 -13.279 -17.218  0.00  0.00    +0.019 A 
ENDROOT
BRANCH   6  12
ATOM     12  N   LIG    1       -5.084  -9.655 -17.428  0.00  0.00    +0.061 N 
ATOM     13  O   LIG    1       -4.475  -8.652 -17.723  0.00  0.00    -0.160 OA
ATOM     14  O   LIG    1       -6.141  -9.571 -16.848  0.00  0.00    -0.159 OA
ENDBRANCH   6  12
BRANCH   5  15
ATOM     15  C   LIG    1       -2.270 -11.205 -22.792  0.00  0.00    +0.568 C 
ATOM     16  O   LIG    1       -2.738 -11.841 -23.717  0.00  0.00    -0.486 OA
BRANCH  15  17
ATOM     17  O   LIG    1       -1.253 -10.346 -23.011  0.00  0.00    -0.342 OA
BRANCH  17  18
ATOM     18  C   LIG    1       -0.076 -10.521 -22.221  0.00  0.00    +0.367 C 
BRANCH  18  19
ATOM     19  C   LIG    1        0.296  -9.210 -21.576  0.00  0.00    -0.035 A 
ATOM     20  C   LIG    1       -0.541  -8.367 -20.993  0.00  0.00    +0.216 A 
ATOM     21  O   LIG    1        0.173  -7.309 -20.537  0.00  0.00    -0.241 OA
ATOM     22  C   LIG    1        1.463  -7.517 -20.848  0.00  0.00    +0.573 A 
ATOM     23  O   LIG    1        2.390  -6.772 -20.592  0.00  0.00    -0.420 OA
ATOM     24  O   LIG    1        1.546  -8.694 -21.487  0.00  0.00    -0.232 OA
ENDBRANCH  18  19
ENDBRANCH  17  18
ENDBRANCH  15  17
ENDBRANCH   5  15
BRANCH  11  25
ATOM     25  O   LIG    1       -4.169 -14.305 -16.329  0.00  0.00    -0.478 OA
ATOM     26  H   LIG    1       -5.057 -14.449 -15.973  0.00  0.00    +0.379 HD
ENDBRANCH  11  25
TORSDOF 6
ENDMDL
MODEL 5
REMARK VINA RESULT:      -6.3      1.710      2.760
REMARK  Name = CHEMBL1091983
REMARK                            x       y       z     vdW  Elec       q    Type
REMARK                         _______ _______ _______ _____ _____    ______ ____
ROOT
ATOM      1  C   LIG    1        6.545  -6.063 -16.700  0.00  0.00    +0.109 A 
ATOM      2  C   LIG    1        6.754  -6.131 -18.104  0.00  0.00    -0.216 A 
ATOM      3  C   LIG    1        7.238  -4.957 -18.727  0.00  0.00    +0.014 A 
ATOM      4  S   LIG    1        7.370  -5.419 -20.436  0.00  0.00    +0.115 S 
ATOM      5  C   LIG    1        6.801  -7.104 -20.293  0.00  0.00    -0.271 A 
ATOM      6  C   LIG    1        7.495  -3.802 -18.021  0.00  0.00    -0.164 A 
ATOM      7  C   LIG    1        7.280  -3.773 -16.654  0.00  0.00    +0.331 A 
ATOM      8  O   LIG    1        7.530  -2.642 -15.944  0.00  0.00    -0.619 OA
ATOM      9  C   LIG    1        6.542  -7.226 -18.961  0.00  0.00    +0.104 A 
ATOM     10 CL   LIG    1        5.950  -8.728 -18.323  0.00  0.00    -0.033 Cl
ATOM     11  C   LIG    1        6.802  -4.920 -16.012  0.00  0.00    +0.019 A 
ENDROOT
BRANCH   6  12
ATOM     12  N   LIG    1        8.002  -2.599 -18.721  0.00  0.00    +0.061 N 
ATOM     13  O   LIG    1        7.225  -1.823 -19.228  0.00  0.00    -0.160 OA
ATOM     14  O   LIG    1        9.191  -2.394 -18.787  0.00  0.00    -0.159 OA
ENDBRANCH   6  12
BRANCH   5  15
ATOM     15  C   LIG    1        6.649  -8.109 -21.348  0.00  0.00    +0.568 C 
ATOM     16  O   LIG    1        7.544  -8.904 -21.564  0.00  0.00    -0.486 OA
BRANCH  15  17
ATOM     17  O   LIG    1        5.517  -8.153 -22.080  0.00  0.00    -0.342 OA
BRANCH  17  18
ATOM     18  C   LIG    1        4.470  -9.000 -21.606  0.00  0.00    +0.367 C 
BRANCH  18  19
ATOM     19  C   LIG    1        3.278  -8.160 -21.224  0.00  0.00    -0.035 A 
ATOM     20  C   LIG    1        3.299  -6.869 -20.934  0.00  0.00    +0.216 A 
ATOM     21  O   LIG    1        2.033  -6.480 -20.643  0.00  0.00    -0.241 OA
ATOM     22  C   LIG    1        1.234  -7.553 -20.762  0.00  0.00    +0.573 A 
ATOM     23  O   LIG    1        0.032  -7.575 -20.576  0.00  0.00    -0.420 OA
ATOM     24  O   LIG    1        1.998  -8.595 -21.126  0.00  0.00    -0.232 OA
ENDBRANCH  18  19
ENDBRANCH  17  18
ENDBRANCH  15  17
ENDBRANCH   5  15
BRANCH  11  25
ATOM     25  O   LIG    1        6.589  -4.890 -14.669  0.00  0.00    -0.478 OA
ATOM     26  H   LIG    1        5.668  -4.736 -14.418  0.00  0.00    +0.379 HD
ENDBRANCH  11  25
TORSDOF 6
ENDMDL
MODEL 6
REMARK VINA RESULT:      -6.2      6.651      9.153
REMARK  Name = CHEMBL1091983
REMARK                            x       y       z     vdW  Elec       q    Type
REMARK                         _______ _______ _______ _____ _____    ______ ____
ROOT
ATOM      1  C   LIG    1       -1.411  -6.966 -23.890  0.00  0.00    +0.109 A 
ATOM      2  C   LIG    1       -1.199  -7.938 -22.875  0.00  0.00    -0.216 A 
ATOM      3  C   LIG    1        0.011  -7.836 -22.149  0.00  0.00    +0.014 A 
ATOM      4  S   LIG    1       -0.081  -9.186 -21.000  0.00  0.00    +0.115 S 
ATOM      5  C   LIG    1       -1.670  -9.835 -21.489  0.00  0.00    -0.271 A 
ATOM      6  C   LIG    1        0.942  -6.853 -22.403  0.00  0.00    -0.164 A 
ATOM      7  C   LIG    1        0.701  -5.923 -23.400  0.00  0.00    +0.331 A 
ATOM      8  O   LIG    1        1.609  -4.947 -23.663  0.00  0.00    -0.619 OA
ATOM      9  C   LIG    1       -2.044  -8.995 -22.495  0.00  0.00    +0.104 A 
ATOM     10 CL   LIG    1       -3.560  -9.231 -23.307  0.00  0.00    -0.033 Cl
ATOM     11  C   LIG    1       -0.488  -6.000 -24.135  0.00  0.00    +0.019 A 
ENDROOT
BRANCH   6  12
ATOM     12  N   LIG    1        2.194  -6.790 -21.614  0.00  0.00    +0.061 N 
ATOM     13  O   LIG    1        3.182  -7.370 -22.000  0.00  0.00    -0.160 OA
ATOM     14  O   LIG    1        2.226  -6.161 -20.582  0.00  0.00    -0.159 OA
ENDBRANCH   6  12
BRANCH   5  15
ATOM     15  C   LIG    1       -2.394 -10.986 -20.944  0.00  0.00    +0.568 C 
ATOM     16  O   LIG    1       -2.202 -12.097 -21.401  0.00  0.00    -0.486 OA
BRANCH  15  17
ATOM     17  O   LIG    1       -3.273 -10.815 -19.936  0.00  0.00    -0.342 OA
BRANCH  17  18
ATOM     18  C   LIG    1       -3.494 -11.929 -19.071  0.00  0.00    +0.367 C 
BRANCH  18  19
ATOM     19  C   LIG    1       -4.342 -11.498 -17.902  0.00  0.00    -0.035 A 
ATOM     20  C   LIG    1       -4.607 -12.222 -16.826  0.00  0.00    +0.216 A 
ATOM     21  O   LIG    1       -5.399 -11.489 -16.007  0.00  0.00    -0.241 OA
ATOM     22  C   LIG    1       -5.616 -10.301 -16.596  0.00  0.00    +0.573 A 
ATOM     23  O   LIG    1       -6.284  -9.390 -16.147  0.00  0.00    -0.420 OA
ATOM     24  O   LIG    1       -4.960 -10.300 -17.768  0.00  0.00    -0.232 OA
ENDBRANCH  18  19
ENDBRANCH  17  18
ENDBRANCH  15  17
ENDBRANCH   5  15
BRANCH  11  25
ATOM     25  O   LIG    1       -0.723  -5.087 -25.114  0.00  0.00    -0.478 OA
ATOM     26  H   LIG    1       -1.089  -5.465 -25.926  0.00  0.00    +0.379 HD
ENDBRANCH  11  25
TORSDOF 6
ENDMDL
MODEL 7
REMARK VINA RESULT:      -6.1     12.326     15.937
REMARK  Name = CHEMBL1091983
REMARK                            x       y       z     vdW  Elec       q    Type
REMARK                         _______ _______ _______ _____ _____    ______ ____
ROOT
ATOM      1  C   LIG    1       -4.580 -18.765 -20.446  0.00  0.00    +0.109 A 
ATOM      2  C   LIG    1       -4.250 -17.557 -21.119  0.00  0.00    -0.216 A 
ATOM      3  C   LIG    1       -4.934 -17.305 -22.332  0.00  0.00    +0.014 A 
ATOM      4  S   LIG    1       -4.273 -15.747 -22.864  0.00  0.00    +0.115 S 
ATOM      5  C   LIG    1       -3.142 -15.470 -21.512  0.00  0.00    -0.271 A 
ATOM      6  C   LIG    1       -5.870 -18.177 -22.845  0.00  0.00    -0.164 A 
ATOM      7  C   LIG    1       -6.165 -19.344 -22.160  0.00  0.00    +0.331 A 
ATOM      8  O   LIG    1       -7.087 -20.213 -22.652  0.00  0.00    -0.619 OA
ATOM      9  C   LIG    1       -3.326 -16.571 -20.731  0.00  0.00    +0.104 A 
ATOM     10 CL   LIG    1       -2.421 -16.758 -19.262  0.00  0.00    -0.033 Cl
ATOM     11  C   LIG    1       -5.504 -19.619 -20.958  0.00  0.00    +0.019 A 
ENDROOT
BRANCH   6  12
ATOM     12  N   LIG    1       -6.558 -17.867 -24.119  0.00  0.00    +0.061 N 
ATOM     13  O   LIG    1       -6.090 -18.247 -25.167  0.00  0.00    -0.160 OA
ATOM     14  O   LIG    1       -7.586 -17.232 -24.111  0.00  0.00    -0.159 OA
ENDBRANCH   6  12
BRANCH   5  15
ATOM     15  C   LIG    1       -2.239 -14.337 -21.294  0.00  0.00    +0.568 C 
ATOM     16  O   LIG    1       -1.078 -14.408 -21.649  0.00  0.00    -0.486 OA
BRANCH  15  17
ATOM     17  O   LIG    1       -2.694 -13.215 -20.698  0.00  0.00    -0.342 OA
BRANCH  17  18
ATOM     18  C   LIG    1       -4.064 -13.206 -20.292  0.00  0.00    +0.367 C 
BRANCH  18  19
ATOM     19  C   LIG    1       -4.166 -12.688 -18.881  0.00  0.00    -0.035 A 
ATOM     20  C   LIG    1       -3.862 -13.360 -17.783  0.00  0.00    +0.216 A 
ATOM     21  O   LIG    1       -4.087 -12.554 -16.717  0.00  0.00    -0.241 OA
ATOM     22  C   LIG    1       -4.533 -11.374 -17.178  0.00  0.00    +0.573 A 
ATOM     23  O   LIG    1       -4.836 -10.409 -16.503  0.00  0.00    -0.420 OA
ATOM     24  O   LIG    1       -4.579 -11.449 -18.518  0.00  0.00    -0.232 OA
ENDBRANCH  18  19
ENDBRANCH  17  18
ENDBRANCH  15  17
ENDBRANCH   5  15
BRANCH  11  25
ATOM     25  O   LIG    1       -5.794 -20.766 -20.288  0.00  0.00    -0.478 OA
ATOM     26  H   LIG    1       -6.227 -21.441 -20.829  0.00  0.00    +0.379 HD
ENDBRANCH  11  25
TORSDOF 6
ENDMDL
MODEL 8
REMARK VINA RESULT:      -5.9      3.616      8.482
REMARK  Name = CHEMBL1091983
REMARK                            x       y       z     vdW  Elec       q    Type
REMARK                         _______ _______ _______ _____ _____    ______ ____
ROOT
ATOM      1  C   LIG    1       -0.169  -6.860 -23.334  0.00  0.00    +0.109 A 
ATOM      2  C   LIG    1        0.769  -7.393 -22.409  0.00  0.00    -0.216 A 
ATOM      3  C   LIG    1        0.338  -8.503 -21.644  0.00  0.00    +0.014 A 
ATOM      4  S   LIG    1        1.746  -8.878 -20.630  0.00  0.00    +0.115 S 
ATOM      5  C   LIG    1        2.840  -7.600 -21.222  0.00  0.00    -0.271 A 
ATOM      6  C   LIG    1       -0.921  -9.046 -21.778  0.00  0.00    -0.164 A 
ATOM      7  C   LIG    1       -1.808  -8.499 -22.690  0.00  0.00    +0.331 A 
ATOM      8  O   LIG    1       -3.053  -9.023 -22.836  0.00  0.00    -0.619 OA
ATOM      9  C   LIG    1        2.082  -6.958 -22.155  0.00  0.00    +0.104 A 
ATOM     10 CL   LIG    1        2.733  -5.605 -23.026  0.00  0.00    -0.033 Cl
ATOM     11  C   LIG    1       -1.409  -7.401 -23.460  0.00  0.00    +0.019 A 
ENDROOT
BRANCH   6  12
ATOM     12  N   LIG    1       -1.323 -10.208 -20.953  0.00  0.00    +0.061 N 
ATOM     13  O   LIG    1       -1.120 -11.331 -21.352  0.00  0.00    -0.160 OA
ATOM     14  O   LIG    1       -1.855 -10.033 -19.882  0.00  0.00    -0.159 OA
ENDBRANCH   6  12
BRANCH   5  15
ATOM     15  C   LIG    1        4.216  -7.310 -20.808  0.00  0.00    +0.568 C 
ATOM     16  O   LIG    1        5.141  -7.562 -21.556  0.00  0.00    -0.486 OA
BRANCH  15  17
ATOM     17  O   LIG    1        4.455  -6.765 -19.598  0.00  0.00    -0.342 OA
BRANCH  17  18
ATOM     18  C   LIG    1        5.355  -7.466 -18.737  0.00  0.00    +0.367 C 
BRANCH  18  19
ATOM     19  C   LIG    1        6.042  -6.484 -17.823  0.00  0.00    -0.035 A 
ATOM     20  C   LIG    1        6.752  -5.435 -18.204  0.00  0.00    +0.216 A 
ATOM     21  O   LIG    1        7.204  -4.803 -17.092  0.00  0.00    -0.241 OA
ATOM     22  C   LIG    1        6.758  -5.482 -16.022  0.00  0.00    +0.573 A 
ATOM     23  O   LIG    1        6.969  -5.202 -14.858  0.00  0.00    -0.420 OA
ATOM     24  O   LIG    1        6.034  -6.520 -16.468  0.00  0.00    -0.232 OA
ENDBRANCH  18  19
ENDBRANCH  17  18
ENDBRANCH  15  17
ENDBRANCH   5  15
BRANCH  11  25
ATOM     25  O   LIG    1       -2.281  -6.864 -24.355  0.00  0.00    -0.478 OA
ATOM     26  H   LIG    1       -1.965  -6.876 -25.269  0.00  0.00    +0.379 HD
ENDBRANCH  11  25
TORSDOF 6
ENDMDL
MODEL 9
REMARK VINA RESULT:      -5.7     10.165     12.147
REMARK  Name = CHEMBL1091983
REMARK                            x       y       z     vdW  Elec       q    Type
REMARK                         _______ _______ _______ _____ _____    ______ ____
ROOT
ATOM      1  C   LIG    1       -3.891 -13.859 -17.712  0.00  0.00    +0.109 A 
ATOM      2  C   LIG    1       -3.332 -13.939 -19.016  0.00  0.00    -0.216 A 
ATOM      3  C   LIG    1       -3.162 -12.715 -19.705  0.00  0.00    +0.014 A 
ATOM      4  S   LIG    1       -2.457 -13.209 -21.258  0.00  0.00    +0.115 S 
ATOM      5  C   LIG    1       -2.403 -14.969 -20.969  0.00  0.00    -0.271 A 
ATOM      6  C   LIG    1       -3.516 -11.503 -19.153  0.00  0.00    -0.164 A 
ATOM      7  C   LIG    1       -4.057 -11.464 -17.879  0.00  0.00    +0.331 A 
ATOM      8  O   LIG    1       -4.411 -10.277 -17.320  0.00  0.00    -0.619 OA
ATOM      9  C   LIG    1       -2.922 -15.088 -19.715  0.00  0.00    +0.104 A 
ATOM     10 CL   LIG    1       -3.077 -16.654 -18.982  0.00  0.00    -0.033 Cl
ATOM     11  C   LIG    1       -4.238 -12.659 -17.175  0.00  0.00    +0.019 A 
ENDROOT
BRANCH   6  12
ATOM     12  N   LIG    1       -3.316 -10.250 -19.917  0.00  0.00    +0.061 N 
ATOM     13  O   LIG    1       -2.450  -9.474 -19.589  0.00  0.00    -0.160 OA
ATOM     14  O   LIG    1       -4.021 -10.004 -20.867  0.00  0.00    -0.159 OA
ENDBRANCH   6  12
BRANCH   5  15
ATOM     15  C   LIG    1       -1.921 -16.027 -21.861  0.00  0.00    +0.568 C 
ATOM     16  O   LIG    1       -2.716 -16.734 -22.451  0.00  0.00    -0.486 OA
BRANCH  15  17
ATOM     17  O   LIG    1       -0.596 -16.216 -22.029  0.00  0.00    -0.342 OA
BRANCH  17  18
ATOM     18  C   LIG    1        0.121 -16.791 -20.936  0.00  0.00    +0.367 C 
BRANCH  18  19
ATOM     19  C   LIG    1        1.457 -16.108 -20.796  0.00  0.00    -0.035 A 
ATOM     20  C   LIG    1        1.793 -14.945 -21.329  0.00  0.00    +0.216 A 
ATOM     21  O   LIG    1        3.073 -14.672 -20.976  0.00  0.00    -0.241 OA
ATOM     22  C   LIG    1        3.517 -15.686 -20.216  0.00  0.00    +0.573 A 
ATOM     23  O   LIG    1        4.624 -15.779 -19.721  0.00  0.00    -0.420 OA
ATOM     24  O   LIG    1        2.519 -16.576 -20.097  0.00  0.00    -0.232 OA
ENDBRANCH  18  19
ENDBRANCH  17  18
ENDBRANCH  15  17
ENDBRANCH   5  15
BRANCH  11  25
ATOM     25  O   LIG    1       -4.771 -12.619 -15.924  0.00  0.00    -0.478 OA
ATOM     26  H   LIG    1       -4.918 -13.491 -15.530  0.00  0.00    +0.379 HD
ENDBRANCH  11  25
TORSDOF 6
ENDMDL
