MODEL 1
REMARK VINA RESULT:      -8.5      0.000      0.000
REMARK  Name = CHEMBL8476
REMARK                            x       y       z     vdW  Elec       q    Type
REMARK                         _______ _______ _______ _____ _____    ______ ____
ROOT
ATOM      1  C   LIG    1       -6.041  -1.138 -19.253  0.00  0.00    -0.123 A 
ATOM      2  C   LIG    1       -5.322  -1.683 -20.323  0.00  0.00    +0.113 A 
ATOM      3  C   LIG    1       -4.261  -0.991 -20.864  0.00  0.00    +0.055 A 
ATOM      4  C   LIG    1       -3.902   0.249 -20.349  0.00  0.00    +0.131 A 
ATOM      5  C   LIG    1       -4.615   0.799 -19.283  0.00  0.00    +0.119 A 
ATOM      6  C   LIG    1       -5.683   0.114 -18.739  0.00  0.00    +0.003 A 
ENDROOT
BRANCH   6   7
ATOM      7  N   LIG    1       -6.443   0.699 -17.612  0.00  0.00    +0.037 N 
ATOM      8  O   LIG    1       -7.201   1.620 -17.808  0.00  0.00    -0.133 OA
ATOM      9  O   LIG    1       -6.305   0.256 -16.496  0.00  0.00    -0.117 OA
ENDBRANCH   6   7
BRANCH   1  10
ATOM     10  C   LIG    1       -7.173  -1.875 -18.676  0.00  0.00    +0.383 C 
ATOM     11  O   LIG    1       -8.245  -1.324 -18.533  0.00  0.00    -0.425 OA
BRANCH  10  12
ATOM     12  C   LIG    1       -7.003  -3.313 -18.260  0.00  0.00    +0.056 C 
BRANCH  12  13
ATOM     13  C   LIG    1       -6.967  -4.202 -19.505  0.00  0.00    +0.040 C 
BRANCH  13  14
ATOM     14  C   LIG    1       -8.344  -4.836 -19.720  0.00  0.00    +0.070 C 
BRANCH  14  18
ATOM     15  C   LIG    1       -9.439  -4.499 -23.835  0.00  0.00    -0.002 A 
ATOM     16  C   LIG    1       -8.601  -3.558 -23.263  0.00  0.00    +0.004 A 
ATOM     17  C   LIG    1       -8.248  -3.667 -21.931  0.00  0.00    +0.004 A 
ATOM     18  C   LIG    1       -8.731  -4.716 -21.171  0.00  0.00    -0.085 A 
ATOM     19  C   LIG    1       -9.568  -5.656 -21.743  0.00  0.00    +0.004 A 
ATOM     20  C   LIG    1       -9.921  -5.548 -23.075  0.00  0.00    +0.004 A 
ENDBRANCH  14  18
ENDBRANCH  13  14
ENDBRANCH  12  13
ENDBRANCH  10  12
ENDBRANCH   1  10
BRANCH   4  21
ATOM     21  O   LIG    1       -2.857   0.927 -20.886  0.00  0.00    -0.472 OA
ATOM     22  H   LIG    1       -2.013   0.457 -20.832  0.00  0.00    +0.403 HD
ENDBRANCH   4  21
BRANCH   5  23
ATOM     23  O   LIG    1       -4.259   2.012 -18.783  0.00  0.00    -0.473 OA
ATOM     24  H   LIG    1       -3.322   2.083 -18.550  0.00  0.00    +0.404 HD
ENDBRANCH   5  23
TORSDOF 8
ENDMDL
MODEL 2
REMARK VINA RESULT:      -8.0      2.564      5.619
REMARK  Name = CHEMBL8476
REMARK                            x       y       z     vdW  Elec       q    Type
REMARK                         _______ _______ _______ _____ _____    ______ ____
ROOT
ATOM      1  C   LIG    1       -5.243  -0.653 -19.273  0.00  0.00    -0.123 A 
ATOM      2  C   LIG    1       -5.158  -1.789 -20.087  0.00  0.00    +0.113 A 
ATOM      3  C   LIG    1       -6.168  -2.725 -20.071  0.00  0.00    +0.055 A 
ATOM      4  C   LIG    1       -7.273  -2.544 -19.249  0.00  0.00    +0.131 A 
ATOM      5  C   LIG    1       -7.365  -1.415 -18.434  0.00  0.00    +0.119 A 
ATOM      6  C   LIG    1       -6.354  -0.475 -18.440  0.00  0.00    +0.003 A 
ENDROOT
BRANCH   6   7
ATOM      7  N   LIG    1       -6.446   0.720 -17.572  0.00  0.00    +0.037 N 
ATOM      8  O   LIG    1       -6.215   0.627 -16.389  0.00  0.00    -0.133 OA
ATOM      9  O   LIG    1       -6.754   1.789 -18.046  0.00  0.00    -0.117 OA
ENDBRANCH   6   7
BRANCH   1  10
ATOM     10  C   LIG    1       -4.165   0.345 -19.288  0.00  0.00    +0.383 C 
ATOM     11  O   LIG    1       -3.328   0.347 -18.410  0.00  0.00    -0.425 OA
BRANCH  10  12
ATOM     12  C   LIG    1       -4.101   1.368 -20.393  0.00  0.00    +0.056 C 
BRANCH  12  13
ATOM     13  C   LIG    1       -2.711   1.338 -21.034  0.00  0.00    +0.040 C 
BRANCH  13  14
ATOM     14  C   LIG    1       -2.558   0.059 -21.860  0.00  0.00    +0.070 C 
BRANCH  14  18
ATOM     15  C   LIG    1       -3.920   0.767 -25.847  0.00  0.00    -0.002 A 
ATOM     16  C   LIG    1       -2.859   1.494 -25.340  0.00  0.00    +0.004 A 
ATOM     17  C   LIG    1       -2.419   1.265 -24.050  0.00  0.00    +0.004 A 
ATOM     18  C   LIG    1       -3.039   0.310 -23.267  0.00  0.00    -0.085 A 
ATOM     19  C   LIG    1       -4.101  -0.417 -23.774  0.00  0.00    +0.004 A 
ATOM     20  C   LIG    1       -4.540  -0.189 -25.064  0.00  0.00    +0.004 A 
ENDBRANCH  14  18
ENDBRANCH  13  14
ENDBRANCH  12  13
ENDBRANCH  10  12
ENDBRANCH   1  10
BRANCH   4  21
ATOM     21  O   LIG    1       -8.266  -3.470 -19.236  0.00  0.00    -0.472 OA
ATOM     22  H   LIG    1       -8.323  -3.997 -20.045  0.00  0.00    +0.403 HD
ENDBRANCH   4  21
BRANCH   5  23
ATOM     23  O   LIG    1       -8.448  -1.243 -17.631  0.00  0.00    -0.473 OA
ATOM     24  H   LIG    1       -8.509  -0.361 -17.236  0.00  0.00    +0.404 HD
ENDBRANCH   5  23
TORSDOF 8
ENDMDL
MODEL 3
REMARK VINA RESULT:      -7.9      2.762      6.531
REMARK  Name = CHEMBL8476
REMARK                            x       y       z     vdW  Elec       q    Type
REMARK                         _______ _______ _______ _____ _____    ______ ____
ROOT
ATOM      1  C   LIG    1       -5.352  -0.621 -19.197  0.00  0.00    -0.123 A 
ATOM      2  C   LIG    1       -5.216  -1.771 -19.983  0.00  0.00    +0.113 A 
ATOM      3  C   LIG    1       -6.197  -2.738 -19.964  0.00  0.00    +0.055 A 
ATOM      4  C   LIG    1       -7.321  -2.575 -19.165  0.00  0.00    +0.131 A 
ATOM      5  C   LIG    1       -7.464  -1.432 -18.378  0.00  0.00    +0.119 A 
ATOM      6  C   LIG    1       -6.483  -0.461 -18.387  0.00  0.00    +0.003 A 
ENDROOT
BRANCH   6   7
ATOM      7  N   LIG    1       -6.629   0.750 -17.548  0.00  0.00    +0.037 N 
ATOM      8  O   LIG    1       -7.032   1.779 -18.038  0.00  0.00    -0.133 OA
ATOM      9  O   LIG    1       -6.345   0.710 -16.374  0.00  0.00    -0.117 OA
ENDBRANCH   6   7
BRANCH   1  10
ATOM     10  C   LIG    1       -4.307   0.411 -19.215  0.00  0.00    +0.383 C 
ATOM     11  O   LIG    1       -3.465   0.437 -18.342  0.00  0.00    -0.425 OA
BRANCH  10  12
ATOM     12  C   LIG    1       -4.281   1.437 -20.318  0.00  0.00    +0.056 C 
BRANCH  12  13
ATOM     13  C   LIG    1       -2.900   1.441 -20.979  0.00  0.00    +0.040 C 
BRANCH  13  14
ATOM     14  C   LIG    1       -2.729   0.166 -21.808  0.00  0.00    +0.070 C 
BRANCH  14  18
ATOM     15  C   LIG    1        0.740   0.533 -24.275  0.00  0.00    -0.002 A 
ATOM     16  C   LIG    1       -0.315   1.415 -24.429  0.00  0.00    +0.004 A 
ATOM     17  C   LIG    1       -1.437   1.296 -23.631  0.00  0.00    +0.004 A 
ATOM     18  C   LIG    1       -1.506   0.296 -22.679  0.00  0.00    -0.085 A 
ATOM     19  C   LIG    1       -0.452  -0.586 -22.525  0.00  0.00    +0.004 A 
ATOM     20  C   LIG    1        0.671  -0.466 -23.322  0.00  0.00    +0.004 A 
ENDBRANCH  14  18
ENDBRANCH  13  14
ENDBRANCH  12  13
ENDBRANCH  10  12
ENDBRANCH   1  10
BRANCH   4  21
ATOM     21  O   LIG    1       -8.284  -3.531 -19.149  0.00  0.00    -0.472 OA
ATOM     22  H   LIG    1       -8.433  -3.955 -20.006  0.00  0.00    +0.403 HD
ENDBRANCH   4  21
BRANCH   5  23
ATOM     23  O   LIG    1       -8.566  -1.277 -17.598  0.00  0.00    -0.473 OA
ATOM     24  H   LIG    1       -8.407  -1.430 -16.656  0.00  0.00    +0.404 HD
ENDBRANCH   5  23
TORSDOF 8
ENDMDL
MODEL 4
REMARK VINA RESULT:      -7.8      2.211      3.651
REMARK  Name = CHEMBL8476
REMARK                            x       y       z     vdW  Elec       q    Type
REMARK                         _______ _______ _______ _____ _____    ______ ____
ROOT
ATOM      1  C   LIG    1       -5.774  -1.168 -19.496  0.00  0.00    -0.123 A 
ATOM      2  C   LIG    1       -4.936  -1.542 -20.552  0.00  0.00    +0.113 A 
ATOM      3  C   LIG    1       -3.932  -0.696 -20.968  0.00  0.00    +0.055 A 
ATOM      4  C   LIG    1       -3.750   0.531 -20.341  0.00  0.00    +0.131 A 
ATOM      5  C   LIG    1       -4.582   0.911 -19.287  0.00  0.00    +0.119 A 
ATOM      6  C   LIG    1       -5.594   0.071 -18.869  0.00  0.00    +0.003 A 
ENDROOT
BRANCH   6   7
ATOM      7  N   LIG    1       -6.482   0.475 -17.755  0.00  0.00    +0.037 N 
ATOM      8  O   LIG    1       -6.387  -0.069 -16.680  0.00  0.00    -0.133 OA
ATOM      9  O   LIG    1       -7.302   1.347 -17.922  0.00  0.00    -0.117 OA
ENDBRANCH   6   7
BRANCH   1  10
ATOM     10  C   LIG    1       -6.846  -2.070 -19.052  0.00  0.00    +0.383 C 
ATOM     11  O   LIG    1       -7.924  -1.617 -18.729  0.00  0.00    -0.425 OA
BRANCH  10  12
ATOM     12  C   LIG    1       -6.606  -3.556 -18.998  0.00  0.00    +0.056 C 
BRANCH  12  13
ATOM     13  C   LIG    1       -7.801  -4.242 -18.332  0.00  0.00    +0.040 C 
BRANCH  13  14
ATOM     14  C   LIG    1       -8.078  -5.575 -19.030  0.00  0.00    +0.070 C 
BRANCH  14  18
ATOM     15  C   LIG    1       -6.886  -8.791 -16.483  0.00  0.00    -0.002 A 
ATOM     16  C   LIG    1       -8.195  -8.345 -16.467  0.00  0.00    +0.004 A 
ATOM     17  C   LIG    1       -8.580  -7.304 -17.291  0.00  0.00    +0.004 A 
ATOM     18  C   LIG    1       -7.658  -6.709 -18.130  0.00  0.00    -0.085 A 
ATOM     19  C   LIG    1       -6.349  -7.155 -18.147  0.00  0.00    +0.004 A 
ATOM     20  C   LIG    1       -5.964  -8.197 -17.324  0.00  0.00    +0.004 A 
ENDBRANCH  14  18
ENDBRANCH  13  14
ENDBRANCH  12  13
ENDBRANCH  10  12
ENDBRANCH   1  10
BRANCH   4  21
ATOM     21  O   LIG    1       -2.760   1.362 -20.754  0.00  0.00    -0.472 OA
ATOM     22  H   LIG    1       -2.585   1.324 -21.705  0.00  0.00    +0.403 HD
ENDBRANCH   4  21
BRANCH   5  23
ATOM     23  O   LIG    1       -4.400   2.112 -18.677  0.00  0.00    -0.473 OA
ATOM     24  H   LIG    1       -3.541   2.520 -18.860  0.00  0.00    +0.404 HD
ENDBRANCH   5  23
TORSDOF 8
ENDMDL
MODEL 5
REMARK VINA RESULT:      -7.5      5.246      7.877
REMARK  Name = CHEMBL8476
REMARK                            x       y       z     vdW  Elec       q    Type
REMARK                         _______ _______ _______ _____ _____    ______ ____
ROOT
ATOM      1  C   LIG    1       -6.942  -7.568 -17.573  0.00  0.00    -0.123 A 
ATOM      2  C   LIG    1       -5.713  -7.783 -18.206  0.00  0.00    +0.113 A 
ATOM      3  C   LIG    1       -4.910  -8.832 -17.814  0.00  0.00    +0.055 A 
ATOM      4  C   LIG    1       -5.318  -9.677 -16.790  0.00  0.00    +0.131 A 
ATOM      5  C   LIG    1       -6.543  -9.469 -16.153  0.00  0.00    +0.119 A 
ATOM      6  C   LIG    1       -7.350  -8.417 -16.537  0.00  0.00    +0.003 A 
ENDROOT
BRANCH   6   7
ATOM      7  N   LIG    1       -8.647  -8.191 -15.859  0.00  0.00    +0.037 N 
ATOM      8  O   LIG    1       -8.777  -7.259 -15.101  0.00  0.00    -0.133 OA
ATOM      9  O   LIG    1       -9.574  -8.939 -16.063  0.00  0.00    -0.117 OA
ENDBRANCH   6   7
BRANCH   1  10
ATOM     10  C   LIG    1       -7.799  -6.450 -17.989  0.00  0.00    +0.383 C 
ATOM     11  O   LIG    1       -8.932  -6.662 -18.367  0.00  0.00    -0.425 OA
BRANCH  10  12
ATOM     12  C   LIG    1       -7.270  -5.039 -17.949  0.00  0.00    +0.056 C 
BRANCH  12  13
ATOM     13  C   LIG    1       -7.911  -4.222 -19.073  0.00  0.00    +0.040 C 
BRANCH  13  14
ATOM     14  C   LIG    1       -6.818  -3.694 -20.005  0.00  0.00    +0.070 C 
BRANCH  14  18
ATOM     15  C   LIG    1       -5.524   0.144 -18.648  0.00  0.00    -0.002 A 
ATOM     16  C   LIG    1       -6.768  -0.336 -18.281  0.00  0.00    +0.004 A 
ATOM     17  C   LIG    1       -7.187  -1.577 -18.721  0.00  0.00    +0.004 A 
ATOM     18  C   LIG    1       -6.362  -2.339 -19.527  0.00  0.00    -0.085 A 
ATOM     19  C   LIG    1       -5.118  -1.860 -19.894  0.00  0.00    +0.004 A 
ATOM     20  C   LIG    1       -4.699  -0.619 -19.453  0.00  0.00    +0.004 A 
ENDBRANCH  14  18
ENDBRANCH  13  14
ENDBRANCH  12  13
ENDBRANCH  10  12
ENDBRANCH   1  10
BRANCH   4  21
ATOM     21  O   LIG    1       -4.524 -10.708 -16.406  0.00  0.00    -0.472 OA
ATOM     22  H   LIG    1       -3.577 -10.516 -16.456  0.00  0.00    +0.403 HD
ENDBRANCH   4  21
BRANCH   5  23
ATOM     23  O   LIG    1       -6.938 -10.299 -15.152  0.00  0.00    -0.473 OA
ATOM     24  H   LIG    1       -7.790 -10.731 -15.312  0.00  0.00    +0.404 HD
ENDBRANCH   5  23
TORSDOF 8
ENDMDL
MODEL 6
REMARK VINA RESULT:      -7.3     12.045     13.735
REMARK  Name = CHEMBL8476
REMARK                            x       y       z     vdW  Elec       q    Type
REMARK                         _______ _______ _______ _____ _____    ______ ____
ROOT
ATOM      1  C   LIG    1       -3.412 -13.642 -19.335  0.00  0.00    -0.123 A 
ATOM      2  C   LIG    1       -3.566 -14.443 -18.197  0.00  0.00    +0.113 A 
ATOM      3  C   LIG    1       -4.036 -13.892 -17.026  0.00  0.00    +0.055 A 
ATOM      4  C   LIG    1       -4.358 -12.542 -16.970  0.00  0.00    +0.131 A 
ATOM      5  C   LIG    1       -4.207 -11.737 -18.100  0.00  0.00    +0.119 A 
ATOM      6  C   LIG    1       -3.731 -12.280 -19.276  0.00  0.00    +0.003 A 
ENDROOT
BRANCH   6   7
ATOM      7  N   LIG    1       -3.564 -11.427 -20.474  0.00  0.00    +0.037 N 
ATOM      8  O   LIG    1       -2.591 -10.718 -20.580  0.00  0.00    -0.133 OA
ATOM      9  O   LIG    1       -4.402 -11.438 -21.345  0.00  0.00    -0.117 OA
ENDBRANCH   6   7
BRANCH   1  10
ATOM     10  C   LIG    1       -2.909 -14.228 -20.585  0.00  0.00    +0.383 C 
ATOM     11  O   LIG    1       -1.732 -14.142 -20.864  0.00  0.00    -0.425 OA
BRANCH  10  12
ATOM     12  C   LIG    1       -3.857 -14.934 -21.520  0.00  0.00    +0.056 C 
BRANCH  12  13
ATOM     13  C   LIG    1       -3.342 -16.349 -21.795  0.00  0.00    +0.040 C 
BRANCH  13  14
ATOM     14  C   LIG    1       -3.636 -17.242 -20.587  0.00  0.00    +0.070 C 
BRANCH  14  18
ATOM     15  C   LIG    1       -6.448 -20.258 -21.704  0.00  0.00    -0.002 A 
ATOM     16  C   LIG    1       -5.728 -20.385 -20.530  0.00  0.00    +0.004 A 
ATOM     17  C   LIG    1       -4.818 -19.409 -20.170  0.00  0.00    +0.004 A 
ATOM     18  C   LIG    1       -4.627 -18.307 -20.982  0.00  0.00    -0.085 A 
ATOM     19  C   LIG    1       -5.348 -18.180 -22.155  0.00  0.00    +0.004 A 
ATOM     20  C   LIG    1       -6.258 -19.155 -22.515  0.00  0.00    +0.004 A 
ENDBRANCH  14  18
ENDBRANCH  13  14
ENDBRANCH  12  13
ENDBRANCH  10  12
ENDBRANCH   1  10
BRANCH   4  21
ATOM     21  O   LIG    1       -4.820 -12.004 -15.813  0.00  0.00    -0.472 OA
ATOM     22  H   LIG    1       -4.665 -12.554 -15.033  0.00  0.00    +0.403 HD
ENDBRANCH   4  21
BRANCH   5  23
ATOM     23  O   LIG    1       -4.524 -10.416 -18.041  0.00  0.00    -0.473 OA
ATOM     24  H   LIG    1       -4.980 -10.085 -18.828  0.00  0.00    +0.404 HD
ENDBRANCH   5  23
TORSDOF 8
ENDMDL
MODEL 7
REMARK VINA RESULT:      -6.9      8.574     10.260
REMARK  Name = CHEMBL8476
REMARK                            x       y       z     vdW  Elec       q    Type
REMARK                         _______ _______ _______ _____ _____    ______ ____
ROOT
ATOM      1  C   LIG    1       -4.050 -10.283 -18.400  0.00  0.00    -0.123 A 
ATOM      2  C   LIG    1       -4.511  -8.962 -18.364  0.00  0.00    +0.113 A 
ATOM      3  C   LIG    1       -5.454  -8.587 -17.434  0.00  0.00    +0.055 A 
ATOM      4  C   LIG    1       -5.951  -9.518 -16.530  0.00  0.00    +0.131 A 
ATOM      5  C   LIG    1       -5.496 -10.837 -16.560  0.00  0.00    +0.119 A 
ATOM      6  C   LIG    1       -4.555 -11.222 -17.493  0.00  0.00    +0.003 A 
ENDROOT
BRANCH   6   7
ATOM      7  N   LIG    1       -4.076 -12.622 -17.530  0.00  0.00    +0.037 N 
ATOM      8  O   LIG    1       -4.491 -13.380 -18.374  0.00  0.00    -0.133 OA
ATOM      9  O   LIG    1       -3.270 -13.006 -16.716  0.00  0.00    -0.117 OA
ENDBRANCH   6   7
BRANCH   1  10
ATOM     10  C   LIG    1       -3.044 -10.684 -19.393  0.00  0.00    +0.383 C 
ATOM     11  O   LIG    1       -1.863 -10.580 -19.135  0.00  0.00    -0.425 OA
BRANCH  10  12
ATOM     12  C   LIG    1       -3.479 -11.226 -20.730  0.00  0.00    +0.056 C 
BRANCH  12  13
ATOM     13  C   LIG    1       -3.585 -10.076 -21.735  0.00  0.00    +0.040 C 
BRANCH  13  14
ATOM     14  C   LIG    1       -2.191  -9.509 -22.010  0.00  0.00    +0.070 C 
BRANCH  14  18
ATOM     15  C   LIG    1       -2.434  -6.578 -25.108  0.00  0.00    -0.002 A 
ATOM     16  C   LIG    1       -1.427  -6.504 -24.164  0.00  0.00    +0.004 A 
ATOM     17  C   LIG    1       -1.349  -7.452 -23.161  0.00  0.00    +0.004 A 
ATOM     18  C   LIG    1       -2.277  -8.474 -23.102  0.00  0.00    -0.085 A 
ATOM     19  C   LIG    1       -3.285  -8.548 -24.047  0.00  0.00    +0.004 A 
ATOM     20  C   LIG    1       -3.362  -7.601 -25.050  0.00  0.00    +0.004 A 
ENDBRANCH  14  18
ENDBRANCH  13  14
ENDBRANCH  12  13
ENDBRANCH  10  12
ENDBRANCH   1  10
BRANCH   4  21
ATOM     21  O   LIG    1       -6.881  -9.143 -15.616  0.00  0.00    -0.472 OA
ATOM     22  H   LIG    1       -7.226  -9.873 -15.083  0.00  0.00    +0.403 HD
ENDBRANCH   4  21
BRANCH   5  23
ATOM     23  O   LIG    1       -5.984 -11.744 -15.673  0.00  0.00    -0.473 OA
ATOM     24  H   LIG    1       -6.881 -11.548 -15.363  0.00  0.00    +0.404 HD
ENDBRANCH   5  23
TORSDOF 8
ENDMDL
MODEL 8
REMARK VINA RESULT:      -6.8      9.997     12.151
REMARK  Name = CHEMBL8476
REMARK                            x       y       z     vdW  Elec       q    Type
REMARK                         _______ _______ _______ _____ _____    ______ ____
ROOT
ATOM      1  C   LIG    1       -3.856 -11.334 -19.414  0.00  0.00    -0.123 A 
ATOM      2  C   LIG    1       -4.221 -10.294 -18.552  0.00  0.00    +0.113 A 
ATOM      3  C   LIG    1       -4.629 -10.575 -17.267  0.00  0.00    +0.055 A 
ATOM      4  C   LIG    1       -4.678 -11.890 -16.824  0.00  0.00    +0.131 A 
ATOM      5  C   LIG    1       -4.316 -12.933 -17.677  0.00  0.00    +0.119 A 
ATOM      6  C   LIG    1       -3.912 -12.660 -18.968  0.00  0.00    +0.003 A 
ENDROOT
BRANCH   6   7
ATOM      7  N   LIG    1       -3.533 -13.765 -19.877  0.00  0.00    +0.037 N 
ATOM      8  O   LIG    1       -4.253 -14.061 -20.802  0.00  0.00    -0.133 OA
ATOM      9  O   LIG    1       -2.505 -14.373 -19.694  0.00  0.00    -0.117 OA
ENDBRANCH   6   7
BRANCH   1  10
ATOM     10  C   LIG    1       -3.422 -11.036 -20.786  0.00  0.00    +0.383 C 
ATOM     11  O   LIG    1       -4.240 -10.966 -21.679  0.00  0.00    -0.425 OA
BRANCH  10  12
ATOM     12  C   LIG    1       -1.961 -10.818 -21.083  0.00  0.00    +0.056 C 
BRANCH  12  13
ATOM     13  C   LIG    1       -1.727  -9.349 -21.444  0.00  0.00    +0.040 C 
BRANCH  13  14
ATOM     14  C   LIG    1       -1.053  -8.637 -20.269  0.00  0.00    +0.070 C 
BRANCH  14  18
ATOM     15  C   LIG    1        2.973  -7.669 -21.318  0.00  0.00    -0.002 A 
ATOM     16  C   LIG    1        2.675  -8.915 -20.797  0.00  0.00    +0.004 A 
ATOM     17  C   LIG    1        1.372  -9.227 -20.457  0.00  0.00    +0.004 A 
ATOM     18  C   LIG    1        0.367  -8.295 -20.638  0.00  0.00    -0.085 A 
ATOM     19  C   LIG    1        0.666  -7.049 -21.159  0.00  0.00    +0.004 A 
ATOM     20  C   LIG    1        1.968  -6.737 -21.499  0.00  0.00    +0.004 A 
ENDBRANCH  14  18
ENDBRANCH  13  14
ENDBRANCH  12  13
ENDBRANCH  10  12
ENDBRANCH   1  10
BRANCH   4  21
ATOM     21  O   LIG    1       -5.081 -12.162 -15.557  0.00  0.00    -0.472 OA
ATOM     22  H   LIG    1       -4.839 -11.484 -14.912  0.00  0.00    +0.403 HD
ENDBRANCH   4  21
BRANCH   5  23
ATOM     23  O   LIG    1       -4.366 -14.219 -17.238  0.00  0.00    -0.473 OA
ATOM     24  H   LIG    1       -4.893 -14.806 -17.799  0.00  0.00    +0.404 HD
ENDBRANCH   5  23
TORSDOF 8
ENDMDL
MODEL 9
REMARK VINA RESULT:      -6.1      8.959     10.140
REMARK  Name = CHEMBL8476
REMARK                            x       y       z     vdW  Elec       q    Type
REMARK                         _______ _______ _______ _____ _____    ______ ____
ROOT
ATOM      1  C   LIG    1       -0.685  -7.673 -22.123  0.00  0.00    -0.123 A 
ATOM      2  C   LIG    1       -1.686  -7.562 -23.096  0.00  0.00    +0.113 A 
ATOM      3  C   LIG    1       -1.447  -6.851 -24.251  0.00  0.00    +0.055 A 
ATOM      4  C   LIG    1       -0.215  -6.242 -24.453  0.00  0.00    +0.131 A 
ATOM      5  C   LIG    1        0.787  -6.348 -23.488  0.00  0.00    +0.119 A 
ATOM      6  C   LIG    1        0.554  -7.054 -22.325  0.00  0.00    +0.003 A 
ENDROOT
BRANCH   6   7
ATOM      7  N   LIG    1        1.614  -7.162 -21.298  0.00  0.00    +0.037 N 
ATOM      8  O   LIG    1        1.840  -6.230 -20.563  0.00  0.00    -0.133 OA
ATOM      9  O   LIG    1        2.254  -8.182 -21.195  0.00  0.00    -0.117 OA
ENDBRANCH   6   7
BRANCH   1  10
ATOM     10  C   LIG    1       -0.938  -8.431 -20.890  0.00  0.00    +0.383 C 
ATOM     11  O   LIG    1       -0.822  -7.889 -19.812  0.00  0.00    -0.425 OA
BRANCH  10  12
ATOM     12  C   LIG    1       -1.340  -9.881 -20.966  0.00  0.00    +0.056 C 
BRANCH  12  13
ATOM     13  C   LIG    1       -2.348 -10.189 -19.856  0.00  0.00    +0.040 C 
BRANCH  13  14
ATOM     14  C   LIG    1       -3.336 -11.250 -20.346  0.00  0.00    +0.070 C 
BRANCH  14  18
ATOM     15  C   LIG    1       -3.904 -14.184 -17.293  0.00  0.00    -0.002 A 
ATOM     16  C   LIG    1       -4.187 -12.855 -17.036  0.00  0.00    +0.004 A 
ATOM     17  C   LIG    1       -4.003 -11.906 -18.024  0.00  0.00    +0.004 A 
ATOM     18  C   LIG    1       -3.536 -12.285 -19.268  0.00  0.00    -0.085 A 
ATOM     19  C   LIG    1       -3.252 -13.614 -19.525  0.00  0.00    +0.004 A 
ATOM     20  C   LIG    1       -3.438 -14.563 -18.538  0.00  0.00    +0.004 A 
ENDBRANCH  14  18
ENDBRANCH  13  14
ENDBRANCH  12  13
ENDBRANCH  10  12
ENDBRANCH   1  10
BRANCH   4  21
ATOM     21  O   LIG    1        0.014  -5.541 -25.593  0.00  0.00    -0.472 OA
ATOM     22  H   LIG    1        0.013  -4.582 -25.473  0.00  0.00    +0.403 HD
ENDBRANCH   4  21
BRANCH   5  23
ATOM     23  O   LIG    1        1.991  -5.751 -23.691  0.00  0.00    -0.473 OA
ATOM     24  H   LIG    1        2.690  -6.061 -23.097  0.00  0.00    +0.404 HD
ENDBRANCH   5  23
TORSDOF 8
ENDMDL
