MODEL 1
REMARK VINA RESULT:      -5.6      0.000      0.000
REMARK  Name = CHEMBL1089505
REMARK                            x       y       z     vdW  Elec       q    Type
REMARK                         _______ _______ _______ _____ _____    ______ ____
ROOT
ATOM      1  C   LIG    1       -2.506 -14.967 -21.096  0.00  0.00    -0.264 A 
ATOM      2  C   LIG    1       -2.990 -15.091 -19.828  0.00  0.00    +0.098 A 
ATOM      3 CL   LIG    1       -3.138 -16.661 -19.103  0.00  0.00    -0.035 Cl
ATOM      4  C   LIG    1       -3.369 -13.944 -19.108  0.00  0.00    -0.215 A 
ATOM      5  C   LIG    1       -3.891 -13.869 -17.789  0.00  0.00    +0.108 A 
ATOM      6  C   LIG    1       -4.212 -12.670 -17.233  0.00  0.00    +0.018 A 
ATOM      7  C   LIG    1       -4.042 -11.472 -17.935  0.00  0.00    +0.331 A 
ATOM      8  O   LIG    1       -4.370 -10.287 -17.357  0.00  0.00    -0.622 OA
ATOM      9  C   LIG    1       -3.536 -11.505 -19.223  0.00  0.00    -0.165 A 
ATOM     10  C   LIG    1       -3.208 -12.716 -19.793  0.00  0.00    +0.011 A 
ATOM     11  S   LIG    1       -2.545 -13.203 -21.366  0.00  0.00    +0.113 S 
ENDROOT
BRANCH   9  12
ATOM     12  N   LIG    1       -3.348 -10.249 -19.982  0.00  0.00    +0.062 N 
ATOM     13  O   LIG    1       -4.072  -9.994 -20.917  0.00  0.00    -0.160 OA
ATOM     14  O   LIG    1       -2.472  -9.477 -19.668  0.00  0.00    -0.161 OA
ENDBRANCH   9  12
BRANCH   1  15
ATOM     15  C   LIG    1       -2.058 -16.021 -22.009  0.00  0.00    +0.560 C 
ATOM     16  O   LIG    1       -0.902 -16.398 -21.982  0.00  0.00    -0.491 OA
BRANCH  15  17
ATOM     17  O   LIG    1       -2.928 -16.575 -22.878  0.00  0.00    -0.346 OA
BRANCH  17  18
ATOM     18  C   LIG    1       -3.440 -17.868 -22.549  0.00  0.00    +0.203 C 
BRANCH  18  20
ATOM     19  C   LIG    1       -5.216 -18.898 -21.126  0.00  0.00    +0.030 C 
ATOM     20  C   LIG    1       -4.885 -17.735 -22.064  0.00  0.00    +0.025 C 
ENDBRANCH  18  20
ENDBRANCH  17  18
ENDBRANCH  15  17
ENDBRANCH   1  15
BRANCH   6  21
ATOM     21  O   LIG    1       -4.710 -12.636 -15.967  0.00  0.00    -0.478 OA
ATOM     22  H   LIG    1       -4.099 -12.268 -15.315  0.00  0.00    +0.378 HD
ENDBRANCH   6  21
TORSDOF 6
ENDMDL
MODEL 2
REMARK VINA RESULT:      -5.3     11.507     13.134
REMARK  Name = CHEMBL1089505
REMARK                            x       y       z     vdW  Elec       q    Type
REMARK                         _______ _______ _______ _____ _____    ______ ____
ROOT
ATOM      1  C   LIG    1        6.088  -7.355 -19.189  0.00  0.00    -0.264 A 
ATOM      2  C   LIG    1        6.736  -6.310 -19.777  0.00  0.00    +0.098 A 
ATOM      3 CL   LIG    1        7.128  -6.369 -21.467  0.00  0.00    -0.035 Cl
ATOM      4  C   LIG    1        7.088  -5.184 -19.012  0.00  0.00    -0.215 A 
ATOM      5  C   LIG    1        7.761  -4.009 -19.440  0.00  0.00    +0.108 A 
ATOM      6  C   LIG    1        8.030  -3.002 -18.565  0.00  0.00    +0.018 A 
ATOM      7  C   LIG    1        7.655  -3.086 -17.219  0.00  0.00    +0.331 A 
ATOM      8  O   LIG    1        7.935  -2.066 -16.366  0.00  0.00    -0.622 OA
ATOM      9  C   LIG    1        6.998  -4.216 -16.766  0.00  0.00    -0.165 A 
ATOM     10  C   LIG    1        6.722  -5.240 -17.646  0.00  0.00    +0.011 A 
ATOM     11  S   LIG    1        5.918  -6.816 -17.497  0.00  0.00    +0.113 S 
ENDROOT
BRANCH   9  12
ATOM     12  N   LIG    1        6.594  -4.324 -15.347  0.00  0.00    +0.062 N 
ATOM     13  O   LIG    1        7.036  -5.215 -14.659  0.00  0.00    -0.160 OA
ATOM     14  O   LIG    1        5.822  -3.522 -14.875  0.00  0.00    -0.161 OA
ENDBRANCH   9  12
BRANCH   1  15
ATOM     15  C   LIG    1        5.635  -8.607 -19.799  0.00  0.00    +0.560 C 
ATOM     16  O   LIG    1        6.324  -9.607 -19.719  0.00  0.00    -0.491 OA
BRANCH  15  17
ATOM     17  O   LIG    1        4.454  -8.654 -20.447  0.00  0.00    -0.346 OA
BRANCH  17  18
ATOM     18  C   LIG    1        3.437  -9.488 -19.887  0.00  0.00    +0.203 C 
BRANCH  18  20
ATOM     19  C   LIG    1        2.055  -7.634 -20.833  0.00  0.00    +0.030 C 
ATOM     20  C   LIG    1        2.084  -9.129 -20.505  0.00  0.00    +0.025 C 
ENDBRANCH  18  20
ENDBRANCH  17  18
ENDBRANCH  15  17
ENDBRANCH   1  15
BRANCH   6  21
ATOM     21  O   LIG    1        8.676  -1.890 -19.009  0.00  0.00    -0.478 OA
ATOM     22  H   LIG    1        8.128  -1.307 -19.550  0.00  0.00    +0.378 HD
ENDBRANCH   6  21
TORSDOF 6
ENDMDL
MODEL 3
REMARK VINA RESULT:      -5.2     11.959     13.497
REMARK  Name = CHEMBL1089505
REMARK                            x       y       z     vdW  Elec       q    Type
REMARK                         _______ _______ _______ _____ _____    ______ ____
ROOT
ATOM      1  C   LIG    1        6.109  -7.351 -19.174  0.00  0.00    -0.264 A 
ATOM      2  C   LIG    1        6.748  -6.302 -19.765  0.00  0.00    +0.098 A 
ATOM      3 CL   LIG    1        7.135  -6.360 -21.455  0.00  0.00    -0.035 Cl
ATOM      4  C   LIG    1        7.093  -5.173 -19.001  0.00  0.00    -0.215 A 
ATOM      5  C   LIG    1        7.757  -3.993 -19.431  0.00  0.00    +0.108 A 
ATOM      6  C   LIG    1        8.020  -2.984 -18.559  0.00  0.00    +0.018 A 
ATOM      7  C   LIG    1        7.651  -3.069 -17.212  0.00  0.00    +0.331 A 
ATOM      8  O   LIG    1        7.925  -2.047 -16.360  0.00  0.00    -0.622 OA
ATOM      9  C   LIG    1        7.003  -4.204 -16.756  0.00  0.00    -0.165 A 
ATOM     10  C   LIG    1        6.732  -5.231 -17.634  0.00  0.00    +0.011 A 
ATOM     11  S   LIG    1        5.940  -6.812 -17.481  0.00  0.00    +0.113 S 
ENDROOT
BRANCH   9  12
ATOM     12  N   LIG    1        6.604  -4.314 -15.335  0.00  0.00    +0.062 N 
ATOM     13  O   LIG    1        5.827  -3.516 -14.862  0.00  0.00    -0.160 OA
ATOM     14  O   LIG    1        7.054  -5.200 -14.647  0.00  0.00    -0.161 OA
ENDBRANCH   9  12
BRANCH   1  15
ATOM     15  C   LIG    1        5.663  -8.607 -19.781  0.00  0.00    +0.560 C 
ATOM     16  O   LIG    1        4.475  -8.839 -19.898  0.00  0.00    -0.491 OA
BRANCH  15  17
ATOM     17  O   LIG    1        6.570  -9.507 -20.212  0.00  0.00    -0.346 OA
BRANCH  17  18
ATOM     18  C   LIG    1        7.519  -9.983 -19.255  0.00  0.00    +0.203 C 
BRANCH  18  20
ATOM     19  C   LIG    1        7.806 -11.994 -17.800  0.00  0.00    +0.030 C 
ATOM     20  C   LIG    1        6.821 -10.921 -18.268  0.00  0.00    +0.025 C 
ENDBRANCH  18  20
ENDBRANCH  17  18
ENDBRANCH  15  17
ENDBRANCH   1  15
BRANCH   6  21
ATOM     21  O   LIG    1        8.657  -1.867 -19.005  0.00  0.00    -0.478 OA
ATOM     22  H   LIG    1        9.111  -1.371 -18.311  0.00  0.00    +0.378 HD
ENDBRANCH   6  21
TORSDOF 6
ENDMDL
MODEL 4
REMARK VINA RESULT:      -5.2      1.338      2.550
REMARK  Name = CHEMBL1089505
REMARK                            x       y       z     vdW  Elec       q    Type
REMARK                         _______ _______ _______ _____ _____    ______ ____
ROOT
ATOM      1  C   LIG    1       -2.447 -14.927 -21.054  0.00  0.00    -0.264 A 
ATOM      2  C   LIG    1       -2.957 -15.047 -19.796  0.00  0.00    +0.098 A 
ATOM      3 CL   LIG    1       -3.122 -16.614 -19.070  0.00  0.00    -0.035 Cl
ATOM      4  C   LIG    1       -3.351 -13.897 -19.088  0.00  0.00    -0.215 A 
ATOM      5  C   LIG    1       -3.901 -13.819 -17.781  0.00  0.00    +0.108 A 
ATOM      6  C   LIG    1       -4.233 -12.618 -17.235  0.00  0.00    +0.018 A 
ATOM      7  C   LIG    1       -4.047 -11.421 -17.937  0.00  0.00    +0.331 A 
ATOM      8  O   LIG    1       -4.387 -10.234 -17.370  0.00  0.00    -0.622 OA
ATOM      9  C   LIG    1       -3.514 -11.459 -19.214  0.00  0.00    -0.165 A 
ATOM     10  C   LIG    1       -3.175 -12.671 -19.774  0.00  0.00    +0.011 A 
ATOM     11  S   LIG    1       -2.478 -13.164 -21.330  0.00  0.00    +0.113 S 
ENDROOT
BRANCH   9  12
ATOM     12  N   LIG    1       -3.309 -10.205 -19.973  0.00  0.00    +0.062 N 
ATOM     13  O   LIG    1       -2.446  -9.428 -19.635  0.00  0.00    -0.160 OA
ATOM     14  O   LIG    1       -4.005  -9.957 -20.930  0.00  0.00    -0.161 OA
ENDBRANCH   9  12
BRANCH   1  15
ATOM     15  C   LIG    1       -1.980 -15.984 -21.954  0.00  0.00    +0.560 C 
ATOM     16  O   LIG    1       -2.785 -16.694 -22.527  0.00  0.00    -0.491 OA
BRANCH  15  17
ATOM     17  O   LIG    1       -0.659 -16.170 -22.150  0.00  0.00    -0.346 OA
BRANCH  17  18
ATOM     18  C   LIG    1        0.060 -16.855 -21.123  0.00  0.00    +0.203 C 
BRANCH  18  20
ATOM     19  C   LIG    1        1.490 -14.833 -21.454  0.00  0.00    +0.030 C 
ATOM     20  C   LIG    1        1.028 -15.885 -20.443  0.00  0.00    +0.025 C 
ENDBRANCH  18  20
ENDBRANCH  17  18
ENDBRANCH  15  17
ENDBRANCH   1  15
BRANCH   6  21
ATOM     21  O   LIG    1       -4.757 -12.579 -15.981  0.00  0.00    -0.478 OA
ATOM     22  H   LIG    1       -5.724 -12.575 -15.959  0.00  0.00    +0.378 HD
ENDBRANCH   6  21
TORSDOF 6
ENDMDL
MODEL 5
REMARK VINA RESULT:      -5.2      4.933      7.073
REMARK  Name = CHEMBL1089505
REMARK                            x       y       z     vdW  Elec       q    Type
REMARK                         _______ _______ _______ _____ _____    ______ ____
ROOT
ATOM      1  C   LIG    1       -2.260 -10.348 -21.001  0.00  0.00    -0.264 A 
ATOM      2  C   LIG    1       -2.703  -9.625 -22.068  0.00  0.00    +0.098 A 
ATOM      3 CL   LIG    1       -4.213 -10.024 -22.824  0.00  0.00    -0.035 Cl
ATOM      4  C   LIG    1       -1.933  -8.553 -22.555  0.00  0.00    -0.215 A 
ATOM      5  C   LIG    1       -2.222  -7.691 -23.646  0.00  0.00    +0.108 A 
ATOM      6  C   LIG    1       -1.364  -6.694 -23.993  0.00  0.00    +0.018 A 
ATOM      7  C   LIG    1       -0.171  -6.482 -23.293  0.00  0.00    +0.331 A 
ATOM      8  O   LIG    1        0.669  -5.479 -23.659  0.00  0.00    -0.622 OA
ATOM      9  C   LIG    1        0.145  -7.303 -22.224  0.00  0.00    -0.165 A 
ATOM     10  C   LIG    1       -0.719  -8.315 -21.866  0.00  0.00    +0.011 A 
ATOM     11  S   LIG    1       -0.712  -9.558 -20.599  0.00  0.00    +0.113 S 
ENDROOT
BRANCH   9  12
ATOM     12  N   LIG    1        1.401  -7.095 -21.471  0.00  0.00    +0.062 N 
ATOM     13  O   LIG    1        2.341  -7.836 -21.647  0.00  0.00    -0.160 OA
ATOM     14  O   LIG    1        1.489  -6.185 -20.680  0.00  0.00    -0.161 OA
ENDBRANCH   9  12
BRANCH   1  15
ATOM     15  C   LIG    1       -2.901 -11.489 -20.344  0.00  0.00    +0.560 C 
ATOM     16  O   LIG    1       -2.594 -12.624 -20.658  0.00  0.00    -0.491 OA
BRANCH  15  17
ATOM     17  O   LIG    1       -3.830 -11.283 -19.388  0.00  0.00    -0.346 OA
BRANCH  17  18
ATOM     18  C   LIG    1       -3.418 -11.463 -18.032  0.00  0.00    +0.203 C 
BRANCH  18  20
ATOM     19  C   LIG    1       -3.908 -13.838 -17.431  0.00  0.00    +0.030 C 
ATOM     20  C   LIG    1       -4.402 -12.394 -17.319  0.00  0.00    +0.025 C 
ENDBRANCH  18  20
ENDBRANCH  17  18
ENDBRANCH  15  17
ENDBRANCH   1  15
BRANCH   6  21
ATOM     21  O   LIG    1       -1.672  -5.886 -25.043  0.00  0.00    -0.478 OA
ATOM     22  H   LIG    1       -1.647  -6.331 -25.902  0.00  0.00    +0.378 HD
ENDBRANCH   6  21
TORSDOF 6
ENDMDL
MODEL 6
REMARK VINA RESULT:      -4.8     11.606     13.102
REMARK  Name = CHEMBL1089505
REMARK                            x       y       z     vdW  Elec       q    Type
REMARK                         _______ _______ _______ _____ _____    ______ ____
ROOT
ATOM      1  C   LIG    1        6.593  -6.959 -20.295  0.00  0.00    -0.264 A 
ATOM      2  C   LIG    1        6.409  -7.113 -18.954  0.00  0.00    +0.098 A 
ATOM      3 CL   LIG    1        5.814  -8.617 -18.325  0.00  0.00    -0.035 Cl
ATOM      4  C   LIG    1        6.702  -6.051 -18.080  0.00  0.00    -0.215 A 
ATOM      5  C   LIG    1        6.577  -6.019 -16.666  0.00  0.00    +0.108 A 
ATOM      6  C   LIG    1        6.904  -4.903 -15.962  0.00  0.00    +0.018 A 
ATOM      7  C   LIG    1        7.374  -3.750 -16.600  0.00  0.00    +0.331 A 
ATOM      8  O   LIG    1        7.695  -2.647 -15.874  0.00  0.00    -0.622 OA
ATOM      9  C   LIG    1        7.509  -3.743 -17.978  0.00  0.00    -0.165 A 
ATOM     10  C   LIG    1        7.180  -4.871 -18.698  0.00  0.00    +0.011 A 
ATOM     11  S   LIG    1        7.206  -5.288 -20.423  0.00  0.00    +0.113 S 
ENDROOT
BRANCH   9  12
ATOM     12  N   LIG    1        8.005  -2.534 -18.672  0.00  0.00    +0.062 N 
ATOM     13  O   LIG    1        9.194  -2.352 -18.793  0.00  0.00    -0.160 OA
ATOM     14  O   LIG    1        7.221  -1.728 -19.118  0.00  0.00    -0.161 OA
ENDBRANCH   9  12
BRANCH   1  15
ATOM     15  C   LIG    1        6.353  -7.928 -21.367  0.00  0.00    +0.560 C 
ATOM     16  O   LIG    1        7.285  -8.353 -22.023  0.00  0.00    -0.491 OA
BRANCH  15  17
ATOM     17  O   LIG    1        5.099  -8.352 -21.626  0.00  0.00    -0.346 OA
BRANCH  17  18
ATOM     18  C   LIG    1        4.131  -7.353 -21.954  0.00  0.00    +0.203 C 
BRANCH  18  20
ATOM     19  C   LIG    1        1.846  -6.567 -21.319  0.00  0.00    +0.030 C 
ATOM     20  C   LIG    1        3.134  -7.211 -20.802  0.00  0.00    +0.025 C 
ENDBRANCH  18  20
ENDBRANCH  17  18
ENDBRANCH  15  17
ENDBRANCH   1  15
BRANCH   6  21
ATOM     21  O   LIG    1        6.771  -4.907 -14.608  0.00  0.00    -0.478 OA
ATOM     22  H   LIG    1        7.453  -5.415 -14.148  0.00  0.00    +0.378 HD
ENDBRANCH   6  21
TORSDOF 6
ENDMDL
MODEL 7
REMARK VINA RESULT:      -4.8      5.293      7.101
REMARK  Name = CHEMBL1089505
REMARK                            x       y       z     vdW  Elec       q    Type
REMARK                         _______ _______ _______ _____ _____    ______ ____
ROOT
ATOM      1  C   LIG    1       -2.861  -9.704 -22.245  0.00  0.00    -0.264 A 
ATOM      2  C   LIG    1       -1.890  -9.259 -21.398  0.00  0.00    +0.098 A 
ATOM      3 CL   LIG    1       -1.679 -10.007 -19.846  0.00  0.00    -0.035 Cl
ATOM      4  C   LIG    1       -1.060  -8.192 -21.784  0.00  0.00    -0.215 A 
ATOM      5  C   LIG    1       -0.004  -7.592 -21.048  0.00  0.00    +0.108 A 
ATOM      6  C   LIG    1        0.709  -6.557 -21.569  0.00  0.00    +0.018 A 
ATOM      7  C   LIG    1        0.430  -6.047 -22.842  0.00  0.00    +0.331 A 
ATOM      8  O   LIG    1        1.157  -5.012 -23.340  0.00  0.00    -0.622 OA
ATOM      9  C   LIG    1       -0.592  -6.606 -23.589  0.00  0.00    -0.165 A 
ATOM     10  C   LIG    1       -1.318  -7.655 -23.068  0.00  0.00    +0.011 A 
ATOM     11  S   LIG    1       -2.667  -8.643 -23.666  0.00  0.00    +0.113 S 
ENDROOT
BRANCH   9  12
ATOM     12  N   LIG    1       -0.902  -6.082 -24.937  0.00  0.00    +0.062 N 
ATOM     13  O   LIG    1       -1.743  -5.223 -25.072  0.00  0.00    -0.160 OA
ATOM     14  O   LIG    1       -0.316  -6.511 -25.903  0.00  0.00    -0.161 OA
ENDBRANCH   9  12
BRANCH   1  15
ATOM     15  C   LIG    1       -3.822 -10.791 -22.041  0.00  0.00    +0.560 C 
ATOM     16  O   LIG    1       -4.996 -10.624 -22.312  0.00  0.00    -0.491 OA
BRANCH  15  17
ATOM     17  O   LIG    1       -3.406 -11.977 -21.553  0.00  0.00    -0.346 OA
BRANCH  17  18
ATOM     18  C   LIG    1       -4.340 -12.721 -20.769  0.00  0.00    +0.203 C 
BRANCH  18  20
ATOM     19  C   LIG    1       -4.193 -12.416 -18.294  0.00  0.00    +0.030 C 
ATOM     20  C   LIG    1       -3.659 -13.209 -19.489  0.00  0.00    +0.025 C 
ENDBRANCH  18  20
ENDBRANCH  17  18
ENDBRANCH  15  17
ENDBRANCH   1  15
BRANCH   6  21
ATOM     21  O   LIG    1        1.714  -6.005 -20.836  0.00  0.00    -0.478 OA
ATOM     22  H   LIG    1        1.556  -6.017 -19.882  0.00  0.00    +0.378 HD
ENDBRANCH   6  21
TORSDOF 6
ENDMDL
MODEL 8
REMARK VINA RESULT:      -4.5      4.415      6.486
REMARK  Name = CHEMBL1089505
REMARK                            x       y       z     vdW  Elec       q    Type
REMARK                         _______ _______ _______ _____ _____    ______ ____
ROOT
ATOM      1  C   LIG    1       -0.513 -10.173 -22.077  0.00  0.00    -0.264 A 
ATOM      2  C   LIG    1       -1.184  -9.522 -21.086  0.00  0.00    +0.098 A 
ATOM      3 CL   LIG    1       -0.863  -7.845 -20.773  0.00  0.00    -0.035 Cl
ATOM      4  C   LIG    1       -2.137 -10.212 -20.316  0.00  0.00    -0.215 A 
ATOM      5  C   LIG    1       -2.930  -9.712 -19.249  0.00  0.00    +0.108 A 
ATOM      6  C   LIG    1       -3.813 -10.518 -18.599  0.00  0.00    +0.018 A 
ATOM      7  C   LIG    1       -3.972 -11.862 -18.956  0.00  0.00    +0.331 A 
ATOM      8  O   LIG    1       -4.861 -12.646 -18.292  0.00  0.00    -0.622 OA
ATOM      9  C   LIG    1       -3.216 -12.384 -19.991  0.00  0.00    -0.165 A 
ATOM     10  C   LIG    1       -2.320 -11.574 -20.653  0.00  0.00    +0.011 A 
ATOM     11  S   LIG    1       -1.189 -11.822 -22.000  0.00  0.00    +0.113 S 
ENDROOT
BRANCH   9  12
ATOM     12  N   LIG    1       -3.370 -13.803 -20.383  0.00  0.00    +0.062 N 
ATOM     13  O   LIG    1       -2.727 -14.658 -19.819  0.00  0.00    -0.160 OA
ATOM     14  O   LIG    1       -4.136 -14.107 -21.267  0.00  0.00    -0.161 OA
ENDBRANCH   9  12
BRANCH   1  15
ATOM     15  C   LIG    1        0.507  -9.646 -22.987  0.00  0.00    +0.560 C 
ATOM     16  O   LIG    1        0.297  -9.616 -24.185  0.00  0.00    -0.491 OA
BRANCH  15  17
ATOM     17  O   LIG    1        1.679  -9.193 -22.497  0.00  0.00    -0.346 OA
BRANCH  17  18
ATOM     18  C   LIG    1        2.362 -10.034 -21.564  0.00  0.00    +0.203 C 
BRANCH  18  20
ATOM     19  C   LIG    1        2.734  -7.694 -20.770  0.00  0.00    +0.030 C 
ATOM     20  C   LIG    1        3.049  -9.168 -20.506  0.00  0.00    +0.025 C 
ENDBRANCH  18  20
ENDBRANCH  17  18
ENDBRANCH  15  17
ENDBRANCH   1  15
BRANCH   6  21
ATOM     21  O   LIG    1       -4.557 -10.006 -17.582  0.00  0.00    -0.478 OA
ATOM     22  H   LIG    1       -5.302  -9.463 -17.874  0.00  0.00    +0.378 HD
ENDBRANCH   6  21
TORSDOF 6
ENDMDL
MODEL 9
REMARK VINA RESULT:      -4.5      4.285      6.240
REMARK  Name = CHEMBL1089505
REMARK                            x       y       z     vdW  Elec       q    Type
REMARK                         _______ _______ _______ _____ _____    ______ ____
ROOT
ATOM      1  C   LIG    1       -0.688 -10.232 -22.024  0.00  0.00    -0.264 A 
ATOM      2  C   LIG    1       -1.278  -9.671 -20.931  0.00  0.00    +0.098 A 
ATOM      3 CL   LIG    1       -0.903  -8.037 -20.482  0.00  0.00    -0.035 Cl
ATOM      4  C   LIG    1       -2.191 -10.420 -20.167  0.00  0.00    -0.215 A 
ATOM      5  C   LIG    1       -2.901 -10.015 -19.006  0.00  0.00    +0.108 A 
ATOM      6  C   LIG    1       -3.755 -10.868 -18.378  0.00  0.00    +0.018 A 
ATOM      7  C   LIG    1       -3.964 -12.169 -18.850  0.00  0.00    +0.331 A 
ATOM      8  O   LIG    1       -4.822 -13.001 -18.204  0.00  0.00    -0.622 OA
ATOM      9  C   LIG    1       -3.290 -12.598 -19.979  0.00  0.00    -0.165 A 
ATOM     10  C   LIG    1       -2.423 -11.740 -20.621  0.00  0.00    +0.011 A 
ATOM     11  S   LIG    1       -1.391 -11.872 -22.059  0.00  0.00    +0.113 S 
ENDROOT
BRANCH   9  12
ATOM     12  N   LIG    1       -3.497 -13.970 -20.494  0.00  0.00    +0.062 N 
ATOM     13  O   LIG    1       -2.926 -14.902 -19.978  0.00  0.00    -0.160 OA
ATOM     14  O   LIG    1       -4.238 -14.159 -21.431  0.00  0.00    -0.161 OA
ENDBRANCH   9  12
BRANCH   1  15
ATOM     15  C   LIG    1        0.280  -9.633 -22.947  0.00  0.00    +0.560 C 
ATOM     16  O   LIG    1        1.378 -10.136 -23.086  0.00  0.00    -0.491 OA
BRANCH  15  17
ATOM     17  O   LIG    1       -0.048  -8.526 -23.643  0.00  0.00    -0.346 OA
BRANCH  17  18
ATOM     18  C   LIG    1       -1.204  -8.602 -24.479  0.00  0.00    +0.203 C 
BRANCH  18  20
ATOM     19  C   LIG    1       -2.661  -6.705 -25.203  0.00  0.00    +0.030 C 
ATOM     20  C   LIG    1       -2.238  -7.573 -24.015  0.00  0.00    +0.025 C 
ENDBRANCH  18  20
ENDBRANCH  17  18
ENDBRANCH  15  17
ENDBRANCH   1  15
BRANCH   6  21
ATOM     21  O   LIG    1       -4.418 -10.447 -17.267  0.00  0.00    -0.478 OA
ATOM     22  H   LIG    1       -5.343 -10.213 -17.427  0.00  0.00    +0.378 HD
ENDBRANCH   6  21
TORSDOF 6
ENDMDL
