MODEL 1
REMARK VINA RESULT:      -6.7      0.000      0.000
REMARK  Name = CHEMBL1091982
REMARK                            x       y       z     vdW  Elec       q    Type
REMARK                         _______ _______ _______ _____ _____    ______ ____
ROOT
ATOM      1  C   LIG    1       -2.889 -11.303 -21.287  0.00  0.00    -0.180 A 
ATOM      2  C   LIG    1       -2.885 -12.434 -20.524  0.00  0.00    +0.031 A 
ATOM      3 CL   LIG    1       -2.175 -13.895 -21.137  0.00  0.00    +0.006 Cl
ATOM      4  C   LIG    1       -3.458 -12.414 -19.239  0.00  0.00    -0.085 A 
ATOM      5  C   LIG    1       -3.549 -13.479 -18.304  0.00  0.00    +0.136 A 
ATOM      6  C   LIG    1       -4.140 -13.294 -17.093  0.00  0.00    +0.096 A 
ATOM      7  C   LIG    1       -4.676 -12.055 -16.725  0.00  0.00    +0.193 A 
ATOM      8  C   LIG    1       -4.604 -10.994 -17.610  0.00  0.00    -0.013 A 
ATOM      9  C   LIG    1       -4.008 -11.173 -18.840  0.00  0.00    -0.089 A 
ATOM     10  S   LIG    1       -3.703 -10.116 -20.232  0.00  0.00    +0.217 S 
ENDROOT
BRANCH   8  11
ATOM     11  N   LIG    1       -5.166  -9.675 -17.240  0.00  0.00    +0.022 N 
ATOM     12  O   LIG    1       -6.212  -9.611 -16.637  0.00  0.00    -0.109 OA
ATOM     13  O   LIG    1       -4.578  -8.662 -17.541  0.00  0.00    -0.124 OA
ENDBRANCH   8  11
BRANCH   1  14
ATOM     14  C   LIG    1       -2.352 -11.112 -22.635  0.00  0.00    +0.549 C 
ATOM     15  O   LIG    1       -2.851 -11.694 -23.579  0.00  0.00    -0.446 OA
BRANCH  14  16
ATOM     16  O   LIG    1       -1.301 -10.288 -22.832  0.00  0.00    -0.347 OA
BRANCH  16  17
ATOM     17  C   LIG    1       -1.587  -8.897 -22.989  0.00  0.00    +0.488 C 
BRANCH  17  18
ATOM     18  O   LIG    1       -0.369  -8.151 -22.947  0.00  0.00    -0.349 OA
BRANCH  18  19
ATOM     19  C   LIG    1        0.065  -7.764 -21.737  0.00  0.00    +0.429 C 
ATOM     20  O   LIG    1       -0.706  -7.702 -20.809  0.00  0.00    -0.495 OA
BRANCH  19  21
ATOM     21  C   LIG    1        1.516  -7.407 -21.536  0.00  0.00    +0.224 C 
BRANCH  21  23
ATOM     22  C   LIG    1        2.103  -9.819 -21.253  0.00  0.00    +0.032 C 
ATOM     23  C   LIG    1        2.169  -8.433 -20.608  0.00  0.00    -0.007 C 
ATOM     24  C   LIG    1        3.631  -8.048 -20.372  0.00  0.00    +0.047 C 
ENDBRANCH  21  23
BRANCH  21  25
ATOM     25  N   LIG    1        1.612  -6.071 -20.935  0.00  0.00    -0.810 NA
ATOM     26  H   LIG    1        2.314  -6.050 -20.210  0.00  0.00    +0.354 HD
ATOM     27  H   LIG    1        0.717  -5.768 -20.579  0.00  0.00    +0.350 HD
ENDBRANCH  21  25
ENDBRANCH  19  21
ENDBRANCH  18  19
ENDBRANCH  17  18
ENDBRANCH  16  17
ENDBRANCH  14  16
ENDBRANCH   1  14
BRANCH   6  28
ATOM     28  O   LIG    1       -4.211 -14.336 -16.222  0.00  0.00    -0.468 OA
ATOM     29  H   LIG    1       -4.797 -14.180 -15.468  0.00  0.00    +0.401 HD
ENDBRANCH   6  28
BRANCH   7  30
ATOM     30  O   LIG    1       -5.261 -11.896 -15.509  0.00  0.00    -0.467 OA
ATOM     31  H   LIG    1       -5.682 -12.697 -15.167  0.00  0.00    +0.413 HD
ENDBRANCH   7  30
TORSDOF 11
ENDMDL
MODEL 2
REMARK VINA RESULT:      -6.5      6.414     10.734
REMARK  Name = CHEMBL1091982
REMARK                            x       y       z     vdW  Elec       q    Type
REMARK                         _______ _______ _______ _____ _____    ______ ____
ROOT
ATOM      1  C   LIG    1        6.013  -7.453 -19.053  0.00  0.00    -0.180 A 
ATOM      2  C   LIG    1        6.643  -6.420 -19.681  0.00  0.00    +0.031 A 
ATOM      3 CL   LIG    1        6.995  -6.516 -21.378  0.00  0.00    +0.006 Cl
ATOM      4  C   LIG    1        7.007  -5.274 -18.949  0.00  0.00    -0.085 A 
ATOM      5  C   LIG    1        7.663  -4.106 -19.420  0.00  0.00    +0.136 A 
ATOM      6  C   LIG    1        7.947  -3.078 -18.576  0.00  0.00    +0.096 A 
ATOM      7  C   LIG    1        7.605  -3.132 -17.221  0.00  0.00    +0.193 A 
ATOM      8  C   LIG    1        6.964  -4.254 -16.726  0.00  0.00    -0.013 A 
ATOM      9  C   LIG    1        6.673  -5.301 -17.574  0.00  0.00    -0.089 A 
ATOM     10  S   LIG    1        5.880  -6.875 -17.370  0.00  0.00    +0.217 S 
ENDROOT
BRANCH   8  11
ATOM     11  N   LIG    1        6.594  -4.331 -15.294  0.00  0.00    +0.022 N 
ATOM     12  O   LIG    1        5.919  -3.461 -14.796  0.00  0.00    -0.109 OA
ATOM     13  O   LIG    1        6.968  -5.266 -14.624  0.00  0.00    -0.124 OA
ENDBRANCH   8  11
BRANCH   1  14
ATOM     14  C   LIG    1        5.553  -8.722 -19.623  0.00  0.00    +0.549 C 
ATOM     15  O   LIG    1        6.361  -9.540 -20.019  0.00  0.00    -0.446 OA
BRANCH  14  16
ATOM     16  O   LIG    1        4.232  -8.983 -19.709  0.00  0.00    -0.347 OA
BRANCH  16  17
ATOM     17  C   LIG    1        3.601  -8.726 -20.966  0.00  0.00    +0.488 C 
BRANCH  17  18
ATOM     18  O   LIG    1        2.192  -8.584 -20.772  0.00  0.00    -0.349 OA
BRANCH  18  19
ATOM     19  C   LIG    1        1.683  -7.349 -20.894  0.00  0.00    +0.429 C 
ATOM     20  O   LIG    1        2.322  -6.391 -20.526  0.00  0.00    -0.495 OA
BRANCH  19  21
ATOM     21  C   LIG    1        0.312  -7.155 -21.491  0.00  0.00    +0.224 C 
BRANCH  21  23
ATOM     22  C   LIG    1       -1.194  -8.442 -19.968  0.00  0.00    +0.032 C 
ATOM     23  C   LIG    1       -0.500  -8.442 -21.331  0.00  0.00    -0.007 C 
ATOM     24  C   LIG    1       -1.552  -8.521 -22.440  0.00  0.00    +0.047 C 
ENDBRANCH  21  23
BRANCH  21  25
ATOM     25  N   LIG    1        0.439  -6.829 -22.917  0.00  0.00    -0.810 NA
ATOM     26  H   LIG    1        0.816  -7.609 -23.433  0.00  0.00    +0.354 HD
ATOM     27  H   LIG    1        1.001  -6.001 -23.050  0.00  0.00    +0.350 HD
ENDBRANCH  21  25
ENDBRANCH  19  21
ENDBRANCH  18  19
ENDBRANCH  17  18
ENDBRANCH  16  17
ENDBRANCH  14  16
ENDBRANCH   1  14
BRANCH   6  28
ATOM     28  O   LIG    1        8.577  -1.974 -19.061  0.00  0.00    -0.468 OA
ATOM     29  H   LIG    1        8.592  -1.228 -18.446  0.00  0.00    +0.401 HD
ENDBRANCH   6  28
BRANCH   7  30
ATOM     30  O   LIG    1        7.900  -2.091 -16.398  0.00  0.00    -0.467 OA
ATOM     31  H   LIG    1        7.399  -2.090 -15.570  0.00  0.00    +0.413 HD
ENDBRANCH   7  30
TORSDOF 11
ENDMDL
MODEL 3
REMARK VINA RESULT:      -6.4      1.400      1.913
REMARK  Name = CHEMBL1091982
REMARK                            x       y       z     vdW  Elec       q    Type
REMARK                         _______ _______ _______ _____ _____    ______ ____
ROOT
ATOM      1  C   LIG    1       -2.900 -11.648 -21.433  0.00  0.00    -0.180 A 
ATOM      2  C   LIG    1       -2.905 -12.737 -20.613  0.00  0.00    +0.031 A 
ATOM      3 CL   LIG    1       -2.241 -14.244 -21.163  0.00  0.00    +0.006 Cl
ATOM      4  C   LIG    1       -3.449 -12.638 -19.319  0.00  0.00    -0.085 A 
ATOM      5  C   LIG    1       -3.544 -13.650 -18.328  0.00  0.00    +0.136 A 
ATOM      6  C   LIG    1       -4.104 -13.389 -17.117  0.00  0.00    +0.096 A 
ATOM      7  C   LIG    1       -4.603 -12.121 -16.803  0.00  0.00    +0.193 A 
ATOM      8  C   LIG    1       -4.527 -11.109 -17.743  0.00  0.00    -0.013 A 
ATOM      9  C   LIG    1       -3.962 -11.365 -18.974  0.00  0.00    -0.089 A 
ATOM     10  S   LIG    1       -3.664 -10.389 -20.426  0.00  0.00    +0.217 S 
ENDROOT
BRANCH   8  11
ATOM     11  N   LIG    1       -5.051  -9.760 -17.431  0.00  0.00    +0.022 N 
ATOM     12  O   LIG    1       -4.429  -8.777 -17.761  0.00  0.00    -0.109 OA
ATOM     13  O   LIG    1       -6.103  -9.641 -16.845  0.00  0.00    -0.124 OA
ENDBRANCH   8  11
BRANCH   1  14
ATOM     14  C   LIG    1       -2.389 -11.539 -22.801  0.00  0.00    +0.549 C 
ATOM     15  O   LIG    1       -3.054 -11.945 -23.734  0.00  0.00    -0.446 OA
BRANCH  14  16
ATOM     16  O   LIG    1       -1.178 -10.987 -23.026  0.00  0.00    -0.347 OA
BRANCH  16  17
ATOM     17  C   LIG    1       -0.043 -11.848 -22.917  0.00  0.00    +0.488 C 
BRANCH  17  18
ATOM     18  O   LIG    1        0.708 -11.503 -21.751  0.00  0.00    -0.349 OA
BRANCH  18  19
ATOM     19  C   LIG    1        1.506 -10.427 -21.838  0.00  0.00    +0.429 C 
ATOM     20  O   LIG    1        2.287 -10.326 -22.755  0.00  0.00    -0.495 OA
BRANCH  19  21
ATOM     21  C   LIG    1        1.430  -9.346 -20.791  0.00  0.00    +0.224 C 
BRANCH  21  23
ATOM     22  C   LIG    1       -0.637  -7.942 -20.799  0.00  0.00    +0.032 C 
ATOM     23  C   LIG    1        0.766  -8.104 -21.389  0.00  0.00    -0.007 C 
ATOM     24  C   LIG    1        1.605  -6.868 -21.058  0.00  0.00    +0.047 C 
ENDBRANCH  21  23
BRANCH  21  25
ATOM     25  N   LIG    1        2.785  -9.006 -20.338  0.00  0.00    -0.810 NA
ATOM     26  H   LIG    1        3.342  -9.837 -20.208  0.00  0.00    +0.354 HD
ATOM     27  H   LIG    1        2.756  -8.454 -19.493  0.00  0.00    +0.350 HD
ENDBRANCH  21  25
ENDBRANCH  19  21
ENDBRANCH  18  19
ENDBRANCH  17  18
ENDBRANCH  16  17
ENDBRANCH  14  16
ENDBRANCH   1  14
BRANCH   6  28
ATOM     28  O   LIG    1       -4.179 -14.383 -16.191  0.00  0.00    -0.468 OA
ATOM     29  H   LIG    1       -3.345 -14.558 -15.733  0.00  0.00    +0.401 HD
ENDBRANCH   6  28
BRANCH   7  30
ATOM     30  O   LIG    1       -5.158 -11.886 -15.584  0.00  0.00    -0.467 OA
ATOM     31  H   LIG    1       -5.484 -12.681 -15.140  0.00  0.00    +0.413 HD
ENDBRANCH   7  30
TORSDOF 11
ENDMDL
MODEL 4
REMARK VINA RESULT:      -6.0      6.621     10.992
REMARK  Name = CHEMBL1091982
REMARK                            x       y       z     vdW  Elec       q    Type
REMARK                         _______ _______ _______ _____ _____    ______ ____
ROOT
ATOM      1  C   LIG    1        6.853  -6.868 -20.222  0.00  0.00    -0.180 A 
ATOM      2  C   LIG    1        6.628  -6.860 -18.877  0.00  0.00    +0.031 A 
ATOM      3 CL   LIG    1        6.039  -8.288 -18.085  0.00  0.00    +0.006 Cl
ATOM      4  C   LIG    1        6.874  -5.691 -18.133  0.00  0.00    -0.085 A 
ATOM      5  C   LIG    1        6.703  -5.489 -16.738  0.00  0.00    +0.136 A 
ATOM      6  C   LIG    1        6.987  -4.288 -16.168  0.00  0.00    +0.096 A 
ATOM      7  C   LIG    1        7.458  -3.213 -16.930  0.00  0.00    +0.193 A 
ATOM      8  C   LIG    1        7.638  -3.373 -18.292  0.00  0.00    -0.013 A 
ATOM      9  C   LIG    1        7.351  -4.587 -18.878  0.00  0.00    -0.089 A 
ATOM     10  S   LIG    1        7.441  -5.213 -20.536  0.00  0.00    +0.217 S 
ENDROOT
BRANCH   8  11
ATOM     11  N   LIG    1        8.135  -2.247 -19.116  0.00  0.00    +0.022 N 
ATOM     12  O   LIG    1        7.382  -1.667 -19.864  0.00  0.00    -0.109 OA
ATOM     13  O   LIG    1        9.293  -1.909 -19.041  0.00  0.00    -0.124 OA
ENDBRANCH   8  11
BRANCH   1  14
ATOM     14  C   LIG    1        6.663  -7.966 -21.171  0.00  0.00    +0.549 C 
ATOM     15  O   LIG    1        7.627  -8.509 -21.675  0.00  0.00    -0.446 OA
BRANCH  14  16
ATOM     16  O   LIG    1        5.416  -8.376 -21.489  0.00  0.00    -0.347 OA
BRANCH  16  17
ATOM     17  C   LIG    1        4.402  -7.372 -21.559  0.00  0.00    +0.488 C 
BRANCH  17  18
ATOM     18  O   LIG    1        3.433  -7.601 -20.534  0.00  0.00    -0.349 OA
BRANCH  18  19
ATOM     19  C   LIG    1        2.164  -7.259 -20.810  0.00  0.00    +0.429 C 
ATOM     20  O   LIG    1        1.810  -6.108 -20.702  0.00  0.00    -0.495 OA
BRANCH  19  21
ATOM     21  C   LIG    1        1.180  -8.311 -21.253  0.00  0.00    +0.224 C 
BRANCH  21  23
ATOM     22  C   LIG    1       -0.911  -7.618 -22.432  0.00  0.00    +0.032 C 
ATOM     23  C   LIG    1       -0.245  -7.787 -21.064  0.00  0.00    -0.007 C 
ATOM     24  C   LIG    1       -1.048  -8.784 -20.225  0.00  0.00    +0.047 C 
ENDBRANCH  21  23
BRANCH  21  25
ATOM     25  N   LIG    1        1.365  -9.526 -20.448  0.00  0.00    -0.810 NA
ATOM     26  H   LIG    1        1.694 -10.291 -21.018  0.00  0.00    +0.354 HD
ATOM     27  H   LIG    1        0.513  -9.774 -19.966  0.00  0.00    +0.350 HD
ENDBRANCH  21  25
ENDBRANCH  19  21
ENDBRANCH  18  19
ENDBRANCH  17  18
ENDBRANCH  16  17
ENDBRANCH  14  16
ENDBRANCH   1  14
BRANCH   6  28
ATOM     28  O   LIG    1        6.812  -4.128 -14.829  0.00  0.00    -0.468 OA
ATOM     29  H   LIG    1        7.393  -3.466 -14.431  0.00  0.00    +0.401 HD
ENDBRANCH   6  28
BRANCH   7  30
ATOM     30  O   LIG    1        7.736  -2.022 -16.336  0.00  0.00    -0.467 OA
ATOM     31  H   LIG    1        8.404  -1.497 -16.799  0.00  0.00    +0.413 HD
ENDBRANCH   7  30
TORSDOF 11
ENDMDL
MODEL 5
REMARK VINA RESULT:      -5.8      2.557      3.693
REMARK  Name = CHEMBL1091982
REMARK                            x       y       z     vdW  Elec       q    Type
REMARK                         _______ _______ _______ _____ _____    ______ ____
ROOT
ATOM      1  C   LIG    1       -2.171 -10.457 -20.835  0.00  0.00    -0.180 A 
ATOM      2  C   LIG    1       -2.766 -10.228 -19.629  0.00  0.00    +0.031 A 
ATOM      3 CL   LIG    1       -2.940  -8.604 -19.039  0.00  0.00    +0.006 Cl
ATOM      4  C   LIG    1       -3.237 -11.310 -18.864  0.00  0.00    -0.085 A 
ATOM      5  C   LIG    1       -3.878 -11.275 -17.597  0.00  0.00    +0.136 A 
ATOM      6  C   LIG    1       -4.275 -12.422 -16.984  0.00  0.00    +0.096 A 
ATOM      7  C   LIG    1       -4.070 -13.673 -17.576  0.00  0.00    +0.193 A 
ATOM      8  C   LIG    1       -3.450 -13.746 -18.811  0.00  0.00    -0.013 A 
ATOM      9  C   LIG    1       -3.043 -12.589 -19.438  0.00  0.00    -0.089 A 
ATOM     10  S   LIG    1       -2.242 -12.234 -20.981  0.00  0.00    +0.217 S 
ENDROOT
BRANCH   8  11
ATOM     11  N   LIG    1       -3.223 -15.061 -19.454  0.00  0.00    +0.022 N 
ATOM     12  O   LIG    1       -3.701 -15.294 -20.540  0.00  0.00    -0.109 OA
ATOM     13  O   LIG    1       -2.559 -15.901 -18.892  0.00  0.00    -0.124 OA
ENDBRANCH   8  11
BRANCH   1  14
ATOM     14  C   LIG    1       -1.617  -9.483 -21.778  0.00  0.00    +0.549 C 
ATOM     15  O   LIG    1       -2.361  -8.813 -22.469  0.00  0.00    -0.446 OA
BRANCH  14  16
ATOM     16  O   LIG    1       -0.280  -9.329 -21.881  0.00  0.00    -0.347 OA
BRANCH  16  17
ATOM     17  C   LIG    1        0.379  -8.650 -20.810  0.00  0.00    +0.488 C 
BRANCH  17  18
ATOM     18  O   LIG    1        0.143  -7.245 -20.920  0.00  0.00    -0.349 OA
BRANCH  18  19
ATOM     19  C   LIG    1        1.169  -6.487 -21.338  0.00  0.00    +0.429 C 
ATOM     20  O   LIG    1        2.151  -6.363 -20.644  0.00  0.00    -0.495 OA
BRANCH  19  21
ATOM     21  C   LIG    1        1.097  -5.790 -22.672  0.00  0.00    +0.224 C 
BRANCH  21  23
ATOM     22  C   LIG    1       -0.738  -5.634 -24.361  0.00  0.00    +0.032 C 
ATOM     23  C   LIG    1        0.197  -6.590 -23.616  0.00  0.00    -0.007 C 
ATOM     24  C   LIG    1        1.062  -7.348 -24.626  0.00  0.00    +0.047 C 
ENDBRANCH  21  23
BRANCH  21  25
ATOM     25  N   LIG    1        2.444  -5.692 -23.247  0.00  0.00    -0.810 NA
ATOM     26  H   LIG    1        3.098  -5.318 -22.576  0.00  0.00    +0.354 HD
ATOM     27  H   LIG    1        2.438  -5.139 -24.092  0.00  0.00    +0.350 HD
ENDBRANCH  21  25
ENDBRANCH  19  21
ENDBRANCH  18  19
ENDBRANCH  17  18
ENDBRANCH  16  17
ENDBRANCH  14  16
ENDBRANCH   1  14
BRANCH   6  28
ATOM     28  O   LIG    1       -4.886 -12.351 -15.771  0.00  0.00    -0.468 OA
ATOM     29  H   LIG    1       -4.535 -12.971 -15.117  0.00  0.00    +0.401 HD
ENDBRANCH   6  28
BRANCH   7  30
ATOM     30  O   LIG    1       -4.478 -14.805 -16.944  0.00  0.00    -0.467 OA
ATOM     31  H   LIG    1       -3.901 -15.079 -16.217  0.00  0.00    +0.413 HD
ENDBRANCH   7  30
TORSDOF 11
ENDMDL
MODEL 6
REMARK VINA RESULT:      -5.7      4.862      7.844
REMARK  Name = CHEMBL1091982
REMARK                            x       y       z     vdW  Elec       q    Type
REMARK                         _______ _______ _______ _____ _____    ______ ____
ROOT
ATOM      1  C   LIG    1       -2.469 -14.895 -21.024  0.00  0.00    -0.180 A 
ATOM      2  C   LIG    1       -2.965 -15.029 -19.761  0.00  0.00    +0.031 A 
ATOM      3 CL   LIG    1       -3.094 -16.602 -19.038  0.00  0.00    +0.006 Cl
ATOM      4  C   LIG    1       -3.372 -13.889 -19.043  0.00  0.00    -0.085 A 
ATOM      5  C   LIG    1       -3.908 -13.824 -17.730  0.00  0.00    +0.136 A 
ATOM      6  C   LIG    1       -4.255 -12.632 -17.176  0.00  0.00    +0.096 A 
ATOM      7  C   LIG    1       -4.097 -11.431 -17.875  0.00  0.00    +0.193 A 
ATOM      8  C   LIG    1       -3.577 -11.454 -19.157  0.00  0.00    -0.013 A 
ATOM      9  C   LIG    1       -3.223 -12.658 -19.726  0.00  0.00    -0.089 A 
ATOM     10  S   LIG    1       -2.534 -13.132 -21.291  0.00  0.00    +0.217 S 
ENDROOT
BRANCH   8  11
ATOM     11  N   LIG    1       -3.403 -10.193 -19.913  0.00  0.00    +0.022 N 
ATOM     12  O   LIG    1       -3.987 -10.029 -20.959  0.00  0.00    -0.109 OA
ATOM     13  O   LIG    1       -2.676  -9.326 -19.484  0.00  0.00    -0.124 OA
ENDBRANCH   8  11
BRANCH   1  14
ATOM     14  C   LIG    1       -1.995 -15.940 -21.933  0.00  0.00    +0.549 C 
ATOM     15  O   LIG    1       -0.808 -16.046 -22.174  0.00  0.00    -0.446 OA
BRANCH  14  16
ATOM     16  O   LIG    1       -2.877 -16.787 -22.504  0.00  0.00    -0.347 OA
BRANCH  16  17
ATOM     17  C   LIG    1       -4.055 -16.211 -23.072  0.00  0.00    +0.488 C 
BRANCH  17  18
ATOM     18  O   LIG    1       -4.401 -16.913 -24.267  0.00  0.00    -0.349 OA
BRANCH  18  19
ATOM     19  C   LIG    1       -5.031 -18.089 -24.120  0.00  0.00    +0.429 C 
ATOM     20  O   LIG    1       -4.822 -18.989 -24.900  0.00  0.00    -0.495 OA
BRANCH  19  21
ATOM     21  C   LIG    1       -6.001 -18.289 -22.983  0.00  0.00    +0.224 C 
BRANCH  21  23
ATOM     22  C   LIG    1       -5.049 -19.050 -20.802  0.00  0.00    +0.032 C 
ATOM     23  C   LIG    1       -5.579 -19.509 -22.162  0.00  0.00    -0.007 C 
ATOM     24  C   LIG    1       -6.786 -20.427 -21.957  0.00  0.00    +0.047 C 
ENDBRANCH  21  23
BRANCH  21  25
ATOM     25  N   LIG    1       -7.350 -18.504 -23.522  0.00  0.00    -0.810 NA
ATOM     26  H   LIG    1       -7.327 -18.609 -24.525  0.00  0.00    +0.354 HD
ATOM     27  H   LIG    1       -7.971 -17.754 -23.251  0.00  0.00    +0.350 HD
ENDBRANCH  21  25
ENDBRANCH  19  21
ENDBRANCH  18  19
ENDBRANCH  17  18
ENDBRANCH  16  17
ENDBRANCH  14  16
ENDBRANCH   1  14
BRANCH   6  28
ATOM     28  O   LIG    1       -4.766 -12.608 -15.916  0.00  0.00    -0.468 OA
ATOM     29  H   LIG    1       -4.257 -13.123 -15.275  0.00  0.00    +0.401 HD
ENDBRANCH   6  28
BRANCH   7  30
ATOM     30  O   LIG    1       -4.452 -10.252 -17.299  0.00  0.00    -0.467 OA
ATOM     31  H   LIG    1       -5.339  -9.949 -17.536  0.00  0.00    +0.413 HD
ENDBRANCH   7  30
TORSDOF 11
ENDMDL
MODEL 7
REMARK VINA RESULT:      -5.6      3.376      5.911
REMARK  Name = CHEMBL1091982
REMARK                            x       y       z     vdW  Elec       q    Type
REMARK                         _______ _______ _______ _____ _____    ______ ____
ROOT
ATOM      1  C   LIG    1       -2.836 -11.372 -21.349  0.00  0.00    -0.180 A 
ATOM      2  C   LIG    1       -2.839 -12.493 -20.573  0.00  0.00    +0.031 A 
ATOM      3 CL   LIG    1       -2.132 -13.964 -21.165  0.00  0.00    +0.006 Cl
ATOM      4  C   LIG    1       -3.416 -12.456 -19.290  0.00  0.00    -0.085 A 
ATOM      5  C   LIG    1       -3.515 -13.509 -18.342  0.00  0.00    +0.136 A 
ATOM      6  C   LIG    1       -4.110 -13.307 -17.136  0.00  0.00    +0.096 A 
ATOM      7  C   LIG    1       -4.642 -12.062 -16.785  0.00  0.00    +0.193 A 
ATOM      8  C   LIG    1       -4.563 -11.012 -17.682  0.00  0.00    -0.013 A 
ATOM      9  C   LIG    1       -3.963 -11.208 -18.907  0.00  0.00    -0.089 A 
ATOM     10  S   LIG    1       -3.649 -10.169 -20.312  0.00  0.00    +0.217 S 
ENDROOT
BRANCH   8  11
ATOM     11  N   LIG    1       -5.121  -9.686 -17.330  0.00  0.00    +0.022 N 
ATOM     12  O   LIG    1       -6.156  -9.612 -16.709  0.00  0.00    -0.109 OA
ATOM     13  O   LIG    1       -4.541  -8.679 -17.663  0.00  0.00    -0.124 OA
ENDBRANCH   8  11
BRANCH   1  14
ATOM     14  C   LIG    1       -2.293 -11.199 -22.698  0.00  0.00    +0.549 C 
ATOM     15  O   LIG    1       -1.092 -11.231 -22.880  0.00  0.00    -0.446 OA
BRANCH  14  16
ATOM     16  O   LIG    1       -3.128 -11.001 -23.740  0.00  0.00    -0.347 OA
BRANCH  16  17
ATOM     17  C   LIG    1       -4.431 -11.581 -23.645  0.00  0.00    +0.488 C 
BRANCH  17  18
ATOM     18  O   LIG    1       -4.410 -12.896 -24.203  0.00  0.00    -0.349 OA
BRANCH  18  19
ATOM     19  C   LIG    1       -5.274 -13.787 -23.693  0.00  0.00    +0.429 C 
ATOM     20  O   LIG    1       -5.349 -13.941 -22.496  0.00  0.00    -0.495 OA
BRANCH  19  21
ATOM     21  C   LIG    1       -6.151 -14.598 -24.612  0.00  0.00    +0.224 C 
BRANCH  21  23
ATOM     22  C   LIG    1       -7.937 -16.320 -24.313  0.00  0.00    +0.032 C 
ATOM     23  C   LIG    1       -6.507 -15.924 -23.938  0.00  0.00    -0.007 C 
ATOM     24  C   LIG    1       -5.538 -17.011 -24.406  0.00  0.00    +0.047 C 
ENDBRANCH  21  23
BRANCH  21  25
ATOM     25  N   LIG    1       -5.434 -14.864 -25.866  0.00  0.00    -0.810 NA
ATOM     26  H   LIG    1       -5.652 -15.784 -26.219  0.00  0.00    +0.354 HD
ATOM     27  H   LIG    1       -4.438 -14.749 -25.745  0.00  0.00    +0.350 HD
ENDBRANCH  21  25
ENDBRANCH  19  21
ENDBRANCH  18  19
ENDBRANCH  17  18
ENDBRANCH  16  17
ENDBRANCH  14  16
ENDBRANCH   1  14
BRANCH   6  28
ATOM     28  O   LIG    1       -4.188 -14.338 -16.253  0.00  0.00    -0.468 OA
ATOM     29  H   LIG    1       -4.749 -15.069 -16.548  0.00  0.00    +0.401 HD
ENDBRANCH   6  28
BRANCH   7  30
ATOM     30  O   LIG    1       -5.231 -11.886 -15.573  0.00  0.00    -0.467 OA
ATOM     31  H   LIG    1       -5.765 -11.083 -15.507  0.00  0.00    +0.413 HD
ENDBRANCH   7  30
TORSDOF 11
ENDMDL
MODEL 8
REMARK VINA RESULT:      -5.5     11.055     13.593
REMARK  Name = CHEMBL1091982
REMARK                            x       y       z     vdW  Elec       q    Type
REMARK                         _______ _______ _______ _____ _____    ______ ____
ROOT
ATOM      1  C   LIG    1        8.392  -1.016 -18.332  0.00  0.00    -0.180 A 
ATOM      2  C   LIG    1        8.187  -2.043 -19.206  0.00  0.00    +0.031 A 
ATOM      3 CL   LIG    1        8.576  -1.846 -20.887  0.00  0.00    +0.006 Cl
ATOM      4  C   LIG    1        7.659  -3.262 -18.743  0.00  0.00    -0.085 A 
ATOM      5  C   LIG    1        7.377  -4.436 -19.491  0.00  0.00    +0.136 A 
ATOM      6  C   LIG    1        6.862  -5.540 -18.888  0.00  0.00    +0.096 A 
ATOM      7  C   LIG    1        6.594  -5.562 -17.515  0.00  0.00    +0.193 A 
ATOM      8  C   LIG    1        6.857  -4.437 -16.753  0.00  0.00    -0.013 A 
ATOM      9  C   LIG    1        7.378  -3.313 -17.357  0.00  0.00    -0.089 A 
ATOM     10  S   LIG    1        7.857  -1.706 -16.776  0.00  0.00    +0.217 S 
ENDROOT
BRANCH   8  11
ATOM     11  N   LIG    1        6.580  -4.441 -15.299  0.00  0.00    +0.022 N 
ATOM     12  O   LIG    1        7.017  -5.326 -14.601  0.00  0.00    -0.109 OA
ATOM     13  O   LIG    1        5.915  -3.556 -14.809  0.00  0.00    -0.124 OA
ENDBRANCH   8  11
BRANCH   1  14
ATOM     14  C   LIG    1        8.926   0.320 -18.605  0.00  0.00    +0.549 C 
ATOM     15  O   LIG    1       10.035   0.446 -19.086  0.00  0.00    -0.446 OA
BRANCH  14  16
ATOM     16  O   LIG    1        8.186   1.412 -18.319  0.00  0.00    -0.347 OA
BRANCH  16  17
ATOM     17  C   LIG    1        8.029   2.379 -19.360  0.00  0.00    +0.488 C 
BRANCH  17  18
ATOM     18  O   LIG    1        6.652   2.748 -19.464  0.00  0.00    -0.349 OA
BRANCH  18  19
ATOM     19  C   LIG    1        5.994   2.339 -20.559  0.00  0.00    +0.429 C 
ATOM     20  O   LIG    1        5.200   3.075 -21.098  0.00  0.00    -0.495 OA
BRANCH  19  21
ATOM     21  C   LIG    1        6.243   0.962 -21.119  0.00  0.00    +0.224 C 
BRANCH  21  23
ATOM     22  C   LIG    1        7.872   1.372 -22.968  0.00  0.00    +0.032 C 
ATOM     23  C   LIG    1        6.413   1.051 -22.636  0.00  0.00    -0.007 C 
ATOM     24  C   LIG    1        6.027  -0.286 -23.272  0.00  0.00    +0.047 C 
ENDBRANCH  21  23
BRANCH  21  25
ATOM     25  N   LIG    1        5.103   0.091 -20.804  0.00  0.00    -0.810 NA
ATOM     26  H   LIG    1        4.266   0.408 -21.271  0.00  0.00    +0.354 HD
ATOM     27  H   LIG    1        4.959   0.029 -19.806  0.00  0.00    +0.350 HD
ENDBRANCH  21  25
ENDBRANCH  19  21
ENDBRANCH  18  19
ENDBRANCH  17  18
ENDBRANCH  16  17
ENDBRANCH  14  16
ENDBRANCH   1  14
BRANCH   6  28
ATOM     28  O   LIG    1        6.604  -6.647 -19.635  0.00  0.00    -0.468 OA
ATOM     29  H   LIG    1        7.059  -7.443 -19.329  0.00  0.00    +0.401 HD
ENDBRANCH   6  28
BRANCH   7  30
ATOM     30  O   LIG    1        6.081  -6.679 -16.935  0.00  0.00    -0.467 OA
ATOM     31  H   LIG    1        5.116  -6.742 -16.987  0.00  0.00    +0.413 HD
ENDBRANCH   7  30
TORSDOF 11
ENDMDL
MODEL 9
REMARK VINA RESULT:      -5.5      2.520      3.605
REMARK  Name = CHEMBL1091982
REMARK                            x       y       z     vdW  Elec       q    Type
REMARK                         _______ _______ _______ _____ _____    ______ ____
ROOT
ATOM      1  C   LIG    1       -2.320 -10.075 -20.698  0.00  0.00    -0.180 A 
ATOM      2  C   LIG    1       -2.911  -9.951 -19.476  0.00  0.00    +0.031 A 
ATOM      3 CL   LIG    1       -3.139  -8.378 -18.775  0.00  0.00    +0.006 Cl
ATOM      4  C   LIG    1       -3.335 -11.099 -18.782  0.00  0.00    -0.085 A 
ATOM      5  C   LIG    1       -3.963 -11.173 -17.511  0.00  0.00    +0.136 A 
ATOM      6  C   LIG    1       -4.313 -12.373 -16.975  0.00  0.00    +0.096 A 
ATOM      7  C   LIG    1       -4.068 -13.572 -17.652  0.00  0.00    +0.193 A 
ATOM      8  C   LIG    1       -3.458 -13.540 -18.893  0.00  0.00    -0.013 A 
ATOM      9  C   LIG    1       -3.100 -12.328 -19.443  0.00  0.00    -0.089 A 
ATOM     10  S   LIG    1       -2.327 -11.840 -20.965  0.00  0.00    +0.217 S 
ENDROOT
BRANCH   8  11
ATOM     11  N   LIG    1       -3.190 -14.799 -19.625  0.00  0.00    +0.022 N 
ATOM     12  O   LIG    1       -2.470 -15.640 -19.139  0.00  0.00    -0.109 OA
ATOM     13  O   LIG    1       -3.691 -14.985 -20.710  0.00  0.00    -0.124 OA
ENDBRANCH   8  11
BRANCH   1  14
ATOM     14  C   LIG    1       -1.812  -9.020 -21.577  0.00  0.00    +0.549 C 
ATOM     15  O   LIG    1       -2.124  -9.003 -22.752  0.00  0.00    -0.446 OA
BRANCH  14  16
ATOM     16  O   LIG    1       -0.996  -8.066 -21.082  0.00  0.00    -0.347 OA
BRANCH  16  17
ATOM     17  C   LIG    1        0.401  -8.365 -21.042  0.00  0.00    +0.488 C 
BRANCH  17  18
ATOM     18  O   LIG    1        1.114  -7.242 -20.520  0.00  0.00    -0.349 OA
BRANCH  18  19
ATOM     19  C   LIG    1        2.334  -7.007 -21.026  0.00  0.00    +0.429 C 
ATOM     20  O   LIG    1        2.485  -6.156 -21.872  0.00  0.00    -0.495 OA
BRANCH  19  21
ATOM     21  C   LIG    1        3.519  -7.803 -20.541  0.00  0.00    +0.224 C 
BRANCH  21  23
ATOM     22  C   LIG    1        5.252  -7.116 -18.878  0.00  0.00    +0.032 C 
ATOM     23  C   LIG    1        4.694  -6.860 -20.279  0.00  0.00    -0.007 C 
ATOM     24  C   LIG    1        5.789  -7.109 -21.319  0.00  0.00    +0.047 C 
ENDBRANCH  21  23
BRANCH  21  25
ATOM     25  N   LIG    1        3.899  -8.787 -21.562  0.00  0.00    -0.810 NA
ATOM     26  H   LIG    1        4.535  -8.385 -22.234  0.00  0.00    +0.354 HD
ATOM     27  H   LIG    1        3.082  -9.168 -22.019  0.00  0.00    +0.350 HD
ENDBRANCH  21  25
ENDBRANCH  19  21
ENDBRANCH  18  19
ENDBRANCH  17  18
ENDBRANCH  16  17
ENDBRANCH  14  16
ENDBRANCH   1  14
BRANCH   6  28
ATOM     28  O   LIG    1       -4.913 -12.407 -15.755  0.00  0.00    -0.468 OA
ATOM     29  H   LIG    1       -5.877 -12.337 -15.788  0.00  0.00    +0.401 HD
ENDBRANCH   6  28
BRANCH   7  30
ATOM     30  O   LIG    1       -4.427 -14.759 -17.094  0.00  0.00    -0.467 OA
ATOM     31  H   LIG    1       -3.697 -15.385 -16.996  0.00  0.00    +0.413 HD
ENDBRANCH   7  30
TORSDOF 11
ENDMDL
