MODEL 1
REMARK VINA RESULT:      -6.6      0.000      0.000
REMARK  Name = CHEMBL1089538
REMARK                            x       y       z     vdW  Elec       q    Type
REMARK                         _______ _______ _______ _____ _____    ______ ____
ROOT
ATOM      1  C   LIG    1       -2.876 -11.382 -21.275  0.00  0.00    -0.177 A 
ATOM      2  C   LIG    1       -2.880 -12.495 -20.490  0.00  0.00    +0.028 A 
ATOM      3 CL   LIG    1       -2.175 -13.972 -21.070  0.00  0.00    +0.005 Cl
ATOM      4  C   LIG    1       -3.459 -12.448 -19.209  0.00  0.00    -0.084 A 
ATOM      5  C   LIG    1       -3.561 -13.493 -18.253  0.00  0.00    +0.135 A 
ATOM      6  C   LIG    1       -4.157 -13.281 -17.049  0.00  0.00    +0.095 A 
ATOM      7  C   LIG    1       -4.688 -12.033 -16.708  0.00  0.00    +0.192 A 
ATOM      8  C   LIG    1       -4.608 -10.990 -17.614  0.00  0.00    -0.012 A 
ATOM      9  C   LIG    1       -4.006 -11.196 -18.836  0.00  0.00    -0.091 A 
ATOM     10  S   LIG    1       -3.689 -10.168 -20.249  0.00  0.00    +0.217 S 
ENDROOT
BRANCH   8  11
ATOM     11  N   LIG    1       -5.164  -9.661 -17.273  0.00  0.00    +0.022 N 
ATOM     12  O   LIG    1       -4.553  -8.658 -17.559  0.00  0.00    -0.109 OA
ATOM     13  O   LIG    1       -6.232  -9.579 -16.710  0.00  0.00    -0.124 OA
ENDBRANCH   8  11
BRANCH   1  14
ATOM     14  C   LIG    1       -2.331 -11.218 -22.625  0.00  0.00    +0.549 C 
ATOM     15  O   LIG    1       -2.883 -11.748 -23.571  0.00  0.00    -0.441 OA
BRANCH  14  16
ATOM     16  O   LIG    1       -1.220 -10.478 -22.820  0.00  0.00    -0.343 OA
BRANCH  16  17
ATOM     17  C   LIG    1       -0.220 -10.531 -21.801  0.00  0.00    +0.400 C 
ATOM     18  C   LIG    1        0.727 -11.700 -22.074  0.00  0.00    +0.089 C 
BRANCH  17  19
ATOM     19  O   LIG    1        0.521  -9.309 -21.797  0.00  0.00    -0.348 OA
BRANCH  19  20
ATOM     20  C   LIG    1       -0.006  -8.280 -21.113  0.00  0.00    +0.462 C 
ATOM     21  O   LIG    1       -0.483  -8.462 -20.019  0.00  0.00    -0.489 OA
BRANCH  20  23
ATOM     22  C   LIG    1        1.411  -6.315 -21.646  0.00  0.00    +0.059 C 
ATOM     23  C   LIG    1       -0.002  -6.897 -21.713  0.00  0.00    +0.027 C 
ATOM     24  C   LIG    1       -0.455  -6.973 -23.173  0.00  0.00    +0.064 C 
ENDBRANCH  20  23
ENDBRANCH  19  20
ENDBRANCH  17  19
ENDBRANCH  16  17
ENDBRANCH  14  16
ENDBRANCH   1  14
BRANCH   6  25
ATOM     25  O   LIG    1       -4.238 -14.305 -16.157  0.00  0.00    -0.468 OA
ATOM     26  H   LIG    1       -3.499 -14.927 -16.205  0.00  0.00    +0.401 HD
ENDBRANCH   6  25
BRANCH   7  27
ATOM     27  O   LIG    1       -5.279 -11.846 -15.498  0.00  0.00    -0.467 OA
ATOM     28  H   LIG    1       -5.776 -11.019 -15.426  0.00  0.00    +0.412 HD
ENDBRANCH   7  27
TORSDOF 9
ENDMDL
MODEL 2
REMARK VINA RESULT:      -6.5      7.230     10.842
REMARK  Name = CHEMBL1089538
REMARK                            x       y       z     vdW  Elec       q    Type
REMARK                         _______ _______ _______ _____ _____    ______ ____
ROOT
ATOM      1  C   LIG    1        6.016  -7.525 -19.009  0.00  0.00    -0.177 A 
ATOM      2  C   LIG    1        6.627  -6.494 -19.657  0.00  0.00    +0.028 A 
ATOM      3 CL   LIG    1        6.969  -6.613 -21.354  0.00  0.00    +0.005 Cl
ATOM      4  C   LIG    1        6.981  -5.332 -18.947  0.00  0.00    -0.084 A 
ATOM      5  C   LIG    1        7.618  -4.162 -19.441  0.00  0.00    +0.135 A 
ATOM      6  C   LIG    1        7.893  -3.118 -18.615  0.00  0.00    +0.095 A 
ATOM      7  C   LIG    1        7.561  -3.154 -17.257  0.00  0.00    +0.192 A 
ATOM      8  C   LIG    1        6.940  -4.277 -16.740  0.00  0.00    -0.012 A 
ATOM      9  C   LIG    1        6.658  -5.340 -17.569  0.00  0.00    -0.091 A 
ATOM     10  S   LIG    1        5.887  -6.923 -17.334  0.00  0.00    +0.217 S 
ENDROOT
BRANCH   8  11
ATOM     11  N   LIG    1        6.581  -4.336 -15.305  0.00  0.00    +0.022 N 
ATOM     12  O   LIG    1        5.880  -3.478 -14.822  0.00  0.00    -0.109 OA
ATOM     13  O   LIG    1        6.988  -5.243 -14.616  0.00  0.00    -0.124 OA
ENDBRANCH   8  11
BRANCH   1  14
ATOM     14  C   LIG    1        5.570  -8.810 -19.554  0.00  0.00    +0.549 C 
ATOM     15  O   LIG    1        6.387  -9.658 -19.858  0.00  0.00    -0.441 OA
BRANCH  14  16
ATOM     16  O   LIG    1        4.253  -9.052 -19.717  0.00  0.00    -0.343 OA
BRANCH  16  17
ATOM     17  C   LIG    1        3.567  -8.273 -20.697  0.00  0.00    +0.400 C 
ATOM     18  C   LIG    1        3.993  -8.721 -22.097  0.00  0.00    +0.089 C 
BRANCH  17  19
ATOM     19  O   LIG    1        2.157  -8.453 -20.549  0.00  0.00    -0.348 OA
BRANCH  19  20
ATOM     20  C   LIG    1        1.379  -7.381 -20.768  0.00  0.00    +0.462 C 
ATOM     21  O   LIG    1        1.858  -6.272 -20.746  0.00  0.00    -0.489 OA
BRANCH  20  23
ATOM     22  C   LIG    1       -0.397  -7.151 -22.482  0.00  0.00    +0.059 C 
ATOM     23  C   LIG    1       -0.092  -7.560 -21.040  0.00  0.00    +0.027 C 
ATOM     24  C   LIG    1       -0.474  -9.027 -20.834  0.00  0.00    +0.064 C 
ENDBRANCH  20  23
ENDBRANCH  19  20
ENDBRANCH  17  19
ENDBRANCH  16  17
ENDBRANCH  14  16
ENDBRANCH   1  14
BRANCH   6  25
ATOM     25  O   LIG    1        8.505  -2.013 -19.122  0.00  0.00    -0.468 OA
ATOM     26  H   LIG    1        7.998  -1.197 -19.011  0.00  0.00    +0.401 HD
ENDBRANCH   6  25
BRANCH   7  27
ATOM     27  O   LIG    1        7.848  -2.096 -16.452  0.00  0.00    -0.467 OA
ATOM     28  H   LIG    1        7.510  -2.186 -15.551  0.00  0.00    +0.412 HD
ENDBRANCH   7  27
TORSDOF 9
ENDMDL
MODEL 3
REMARK VINA RESULT:      -6.0      2.472      4.837
REMARK  Name = CHEMBL1089538
REMARK                            x       y       z     vdW  Elec       q    Type
REMARK                         _______ _______ _______ _____ _____    ______ ____
ROOT
ATOM      1  C   LIG    1       -2.857 -11.402 -21.331  0.00  0.00    -0.177 A 
ATOM      2  C   LIG    1       -2.874 -12.523 -20.556  0.00  0.00    +0.028 A 
ATOM      3 CL   LIG    1       -2.192 -14.004 -21.153  0.00  0.00    +0.005 Cl
ATOM      4  C   LIG    1       -3.446 -12.479 -19.272  0.00  0.00    -0.084 A 
ATOM      5  C   LIG    1       -3.559 -13.531 -18.325  0.00  0.00    +0.135 A 
ATOM      6  C   LIG    1       -4.146 -13.322 -17.117  0.00  0.00    +0.095 A 
ATOM      7  C   LIG    1       -4.657 -12.070 -16.761  0.00  0.00    +0.192 A 
ATOM      8  C   LIG    1       -4.566 -11.019 -17.658  0.00  0.00    -0.012 A 
ATOM      9  C   LIG    1       -3.973 -11.224 -18.885  0.00  0.00    -0.091 A 
ATOM     10  S   LIG    1       -3.648 -10.187 -20.290  0.00  0.00    +0.217 S 
ENDROOT
BRANCH   8  11
ATOM     11  N   LIG    1       -5.102  -9.687 -17.302  0.00  0.00    +0.022 N 
ATOM     12  O   LIG    1       -4.488  -8.689 -17.600  0.00  0.00    -0.109 OA
ATOM     13  O   LIG    1       -6.156  -9.595 -16.715  0.00  0.00    -0.124 OA
ENDBRANCH   8  11
BRANCH   1  14
ATOM     14  C   LIG    1       -2.316 -11.233 -22.682  0.00  0.00    +0.549 C 
ATOM     15  O   LIG    1       -1.131 -11.008 -22.838  0.00  0.00    -0.441 OA
BRANCH  14  16
ATOM     16  O   LIG    1       -3.132 -11.329 -23.751  0.00  0.00    -0.343 OA
BRANCH  16  17
ATOM     17  C   LIG    1       -4.534 -11.415 -23.492  0.00  0.00    +0.400 C 
ATOM     18  C   LIG    1       -5.217 -10.121 -23.937  0.00  0.00    +0.089 C 
BRANCH  17  19
ATOM     19  O   LIG    1       -5.086 -12.517 -24.216  0.00  0.00    -0.348 OA
BRANCH  19  20
ATOM     20  C   LIG    1       -5.869 -13.365 -23.530  0.00  0.00    +0.462 C 
ATOM     21  O   LIG    1       -5.397 -14.048 -22.652  0.00  0.00    -0.489 OA
BRANCH  20  23
ATOM     22  C   LIG    1       -7.718 -14.935 -24.046  0.00  0.00    +0.059 C 
ATOM     23  C   LIG    1       -7.337 -13.465 -23.855  0.00  0.00    +0.027 C 
ATOM     24  C   LIG    1       -8.156 -12.871 -22.708  0.00  0.00    +0.064 C 
ENDBRANCH  20  23
ENDBRANCH  19  20
ENDBRANCH  17  19
ENDBRANCH  16  17
ENDBRANCH  14  16
ENDBRANCH   1  14
BRANCH   6  25
ATOM     25  O   LIG    1       -4.237 -14.353 -16.233  0.00  0.00    -0.468 OA
ATOM     26  H   LIG    1       -4.462 -14.080 -15.333  0.00  0.00    +0.401 HD
ENDBRANCH   6  25
BRANCH   7  27
ATOM     27  O   LIG    1       -5.240 -11.886 -15.547  0.00  0.00    -0.467 OA
ATOM     28  H   LIG    1       -4.647 -11.518 -14.878  0.00  0.00    +0.412 HD
ENDBRANCH   7  27
TORSDOF 9
ENDMDL
MODEL 4
REMARK VINA RESULT:      -5.7      4.481      7.143
REMARK  Name = CHEMBL1089538
REMARK                            x       y       z     vdW  Elec       q    Type
REMARK                         _______ _______ _______ _____ _____    ______ ____
ROOT
ATOM      1  C   LIG    1       -2.486 -14.892 -21.101  0.00  0.00    -0.177 A 
ATOM      2  C   LIG    1       -2.961 -15.030 -19.832  0.00  0.00    +0.028 A 
ATOM      3 CL   LIG    1       -3.089 -16.606 -19.117  0.00  0.00    +0.005 Cl
ATOM      4  C   LIG    1       -3.349 -13.892 -19.101  0.00  0.00    -0.084 A 
ATOM      5  C   LIG    1       -3.864 -13.832 -17.779  0.00  0.00    +0.135 A 
ATOM      6  C   LIG    1       -4.195 -12.641 -17.213  0.00  0.00    +0.095 A 
ATOM      7  C   LIG    1       -4.041 -11.436 -17.906  0.00  0.00    +0.192 A 
ATOM      8  C   LIG    1       -3.542 -11.455 -19.197  0.00  0.00    -0.012 A 
ATOM      9  C   LIG    1       -3.205 -12.658 -19.778  0.00  0.00    -0.091 A 
ATOM     10  S   LIG    1       -2.544 -13.127 -21.359  0.00  0.00    +0.217 S 
ENDROOT
BRANCH   8  11
ATOM     11  N   LIG    1       -3.373 -10.191 -19.949  0.00  0.00    +0.022 N 
ATOM     12  O   LIG    1       -3.969 -10.020 -20.987  0.00  0.00    -0.109 OA
ATOM     13  O   LIG    1       -2.639  -9.328 -19.525  0.00  0.00    -0.124 OA
ENDBRANCH   8  11
BRANCH   1  14
ATOM     14  C   LIG    1       -2.032 -15.934 -22.025  0.00  0.00    +0.549 C 
ATOM     15  O   LIG    1       -0.980 -16.510 -21.822  0.00  0.00    -0.441 OA
BRANCH  14  16
ATOM     16  O   LIG    1       -2.781 -16.256 -23.100  0.00  0.00    -0.343 OA
BRANCH  16  17
ATOM     17  C   LIG    1       -4.135 -16.641 -22.855  0.00  0.00    +0.400 C 
ATOM     18  C   LIG    1       -5.055 -15.945 -23.859  0.00  0.00    +0.089 C 
BRANCH  17  19
ATOM     19  O   LIG    1       -4.260 -18.058 -22.998  0.00  0.00    -0.348 OA
BRANCH  19  20
ATOM     20  C   LIG    1       -5.171 -18.670 -22.225  0.00  0.00    +0.462 C 
ATOM     21  O   LIG    1       -5.199 -18.454 -21.037  0.00  0.00    -0.489 OA
BRANCH  20  23
ATOM     22  C   LIG    1       -6.584 -20.662 -21.796  0.00  0.00    +0.059 C 
ATOM     23  C   LIG    1       -6.160 -19.627 -22.840  0.00  0.00    +0.027 C 
ATOM     24  C   LIG    1       -7.389 -18.854 -23.320  0.00  0.00    +0.064 C 
ENDBRANCH  20  23
ENDBRANCH  19  20
ENDBRANCH  17  19
ENDBRANCH  16  17
ENDBRANCH  14  16
ENDBRANCH   1  14
BRANCH   6  25
ATOM     25  O   LIG    1       -4.686 -12.621 -15.944  0.00  0.00    -0.468 OA
ATOM     26  H   LIG    1       -4.065 -12.946 -15.277  0.00  0.00    +0.401 HD
ENDBRANCH   6  25
BRANCH   7  27
ATOM     27  O   LIG    1       -4.379 -10.258 -17.318  0.00  0.00    -0.467 OA
ATOM     28  H   LIG    1       -4.370  -9.502 -17.921  0.00  0.00    +0.412 HD
ENDBRANCH   7  27
TORSDOF 9
ENDMDL
MODEL 5
REMARK VINA RESULT:      -5.7      7.420     10.826
REMARK  Name = CHEMBL1089538
REMARK                            x       y       z     vdW  Elec       q    Type
REMARK                         _______ _______ _______ _____ _____    ______ ____
ROOT
ATOM      1  C   LIG    1        6.742  -7.175 -20.471  0.00  0.00    -0.177 A 
ATOM      2  C   LIG    1        6.572  -7.316 -19.127  0.00  0.00    +0.028 A 
ATOM      3 CL   LIG    1        6.065  -8.841 -18.469  0.00  0.00    +0.005 Cl
ATOM      4  C   LIG    1        6.807  -6.224 -18.272  0.00  0.00    -0.084 A 
ATOM      5  C   LIG    1        6.685  -6.175 -16.858  0.00  0.00    +0.135 A 
ATOM      6  C   LIG    1        6.952  -5.030 -16.175  0.00  0.00    +0.095 A 
ATOM      7  C   LIG    1        7.354  -3.864 -16.834  0.00  0.00    +0.192 A 
ATOM      8  C   LIG    1        7.484  -3.874 -18.212  0.00  0.00    -0.012 A 
ATOM      9  C   LIG    1        7.216  -5.030 -18.912  0.00  0.00    -0.091 A 
ATOM     10  S   LIG    1        7.260  -5.475 -20.631  0.00  0.00    +0.217 S 
ENDROOT
BRANCH   8  11
ATOM     11  N   LIG    1        7.908  -2.650 -18.930  0.00  0.00    +0.022 N 
ATOM     12  O   LIG    1        9.014  -2.586 -19.414  0.00  0.00    -0.109 OA
ATOM     13  O   LIG    1        7.148  -1.715 -19.033  0.00  0.00    -0.124 OA
ENDBRANCH   8  11
BRANCH   1  14
ATOM     14  C   LIG    1        6.553  -8.174 -21.526  0.00  0.00    +0.549 C 
ATOM     15  O   LIG    1        7.467  -8.437 -22.285  0.00  0.00    -0.441 OA
BRANCH  14  16
ATOM     16  O   LIG    1        5.367  -8.803 -21.655  0.00  0.00    -0.343 OA
BRANCH  16  17
ATOM     17  C   LIG    1        4.210  -7.979 -21.807  0.00  0.00    +0.400 C 
ATOM     18  C   LIG    1        3.646  -8.143 -23.219  0.00  0.00    +0.089 C 
BRANCH  17  19
ATOM     19  O   LIG    1        3.219  -8.368 -20.852  0.00  0.00    -0.348 OA
BRANCH  19  20
ATOM     20  C   LIG    1        2.155  -7.561 -20.716  0.00  0.00    +0.462 C 
ATOM     21  O   LIG    1        2.312  -6.371 -20.578  0.00  0.00    -0.489 OA
BRANCH  20  23
ATOM     22  C   LIG    1       -0.107  -7.345 -21.710  0.00  0.00    +0.059 C 
ATOM     23  C   LIG    1        0.764  -8.139 -20.734  0.00  0.00    +0.027 C 
ATOM     24  C   LIG    1        0.825  -9.602 -21.179  0.00  0.00    +0.064 C 
ENDBRANCH  20  23
ENDBRANCH  19  20
ENDBRANCH  17  19
ENDBRANCH  16  17
ENDBRANCH  14  16
ENDBRANCH   1  14
BRANCH   6  25
ATOM     25  O   LIG    1        6.824  -5.018 -14.820  0.00  0.00    -0.468 OA
ATOM     26  H   LIG    1        6.792  -5.898 -14.421  0.00  0.00    +0.401 HD
ENDBRANCH   6  25
BRANCH   7  27
ATOM     27  O   LIG    1        7.615  -2.732 -16.129  0.00  0.00    -0.467 OA
ATOM     28  H   LIG    1        8.235  -2.857 -15.398  0.00  0.00    +0.412 HD
ENDBRANCH   7  27
TORSDOF 9
ENDMDL
MODEL 6
REMARK VINA RESULT:      -5.6      4.861      6.782
REMARK  Name = CHEMBL1089538
REMARK                            x       y       z     vdW  Elec       q    Type
REMARK                         _______ _______ _______ _____ _____    ______ ____
ROOT
ATOM      1  C   LIG    1       -4.696 -11.117 -23.160  0.00  0.00    -0.177 A 
ATOM      2  C   LIG    1       -5.450 -10.189 -23.813  0.00  0.00    +0.028 A 
ATOM      3 CL   LIG    1       -4.690  -8.809 -24.544  0.00  0.00    +0.005 Cl
ATOM      4  C   LIG    1       -6.845 -10.349 -23.894  0.00  0.00    -0.084 A 
ATOM      5  C   LIG    1       -7.791  -9.497 -24.524  0.00  0.00    +0.135 A 
ATOM      6  C   LIG    1       -9.117  -9.798 -24.511  0.00  0.00    +0.095 A 
ATOM      7  C   LIG    1       -9.597 -10.950 -23.881  0.00  0.00    +0.192 A 
ATOM      8  C   LIG    1       -8.705 -11.804 -23.255  0.00  0.00    -0.012 A 
ATOM      9  C   LIG    1       -7.360 -11.506 -23.264  0.00  0.00    -0.091 A 
ATOM     10  S   LIG    1       -5.912 -12.303 -22.612  0.00  0.00    +0.217 S 
ENDROOT
BRANCH   8  11
ATOM     11  N   LIG    1       -9.193 -13.028 -22.581  0.00  0.00    +0.022 N 
ATOM     12  O   LIG    1       -8.893 -14.117 -23.013  0.00  0.00    -0.109 OA
ATOM     13  O   LIG    1       -9.892 -12.940 -21.598  0.00  0.00    -0.124 OA
ENDBRANCH   8  11
BRANCH   1  14
ATOM     14  C   LIG    1       -3.245 -11.141 -22.962  0.00  0.00    +0.549 C 
ATOM     15  O   LIG    1       -2.567 -11.970 -23.539  0.00  0.00    -0.441 OA
BRANCH  14  16
ATOM     16  O   LIG    1       -2.661 -10.243 -22.142  0.00  0.00    -0.343 OA
BRANCH  16  17
ATOM     17  C   LIG    1       -2.309 -10.695 -20.833  0.00  0.00    +0.400 C 
ATOM     18  C   LIG    1       -1.415  -9.654 -20.156  0.00  0.00    +0.089 C 
BRANCH  17  19
ATOM     19  O   LIG    1       -3.496 -10.879 -20.057  0.00  0.00    -0.348 OA
BRANCH  19  20
ATOM     20  C   LIG    1       -3.553 -11.975 -19.283  0.00  0.00    +0.462 C 
ATOM     21  O   LIG    1       -3.537 -13.073 -19.787  0.00  0.00    -0.489 OA
BRANCH  20  23
ATOM     22  C   LIG    1       -4.652 -10.747 -17.431  0.00  0.00    +0.059 C 
ATOM     23  C   LIG    1       -3.637 -11.835 -17.785  0.00  0.00    +0.027 C 
ATOM     24  C   LIG    1       -4.080 -13.166 -17.173  0.00  0.00    +0.064 C 
ENDBRANCH  20  23
ENDBRANCH  19  20
ENDBRANCH  17  19
ENDBRANCH  16  17
ENDBRANCH  14  16
ENDBRANCH   1  14
BRANCH   6  25
ATOM     25  O   LIG    1       -9.995  -8.959 -25.125  0.00  0.00    -0.468 OA
ATOM     26  H   LIG    1      -10.793  -9.397 -25.451  0.00  0.00    +0.401 HD
ENDBRANCH   6  25
BRANCH   7  27
ATOM     27  O   LIG    1      -10.928 -11.228 -23.881  0.00  0.00    -0.467 OA
ATOM     28  H   LIG    1      -11.188 -11.905 -24.521  0.00  0.00    +0.412 HD
ENDBRANCH   7  27
TORSDOF 9
ENDMDL
MODEL 7
REMARK VINA RESULT:      -5.5      1.807      2.937
REMARK  Name = CHEMBL1089538
REMARK                            x       y       z     vdW  Elec       q    Type
REMARK                         _______ _______ _______ _____ _____    ______ ____
ROOT
ATOM      1  C   LIG    1       -2.663 -12.229 -21.839  0.00  0.00    -0.177 A 
ATOM      2  C   LIG    1       -3.208 -11.146 -21.218  0.00  0.00    +0.028 A 
ATOM      3 CL   LIG    1       -3.356  -9.639 -22.068  0.00  0.00    +0.005 Cl
ATOM      4  C   LIG    1       -3.649 -11.249 -19.887  0.00  0.00    -0.084 A 
ATOM      5  C   LIG    1       -4.238 -10.241 -19.077  0.00  0.00    +0.135 A 
ATOM      6  C   LIG    1       -4.612 -10.506 -17.797  0.00  0.00    +0.095 A 
ATOM      7  C   LIG    1       -4.434 -11.773 -17.232  0.00  0.00    +0.192 A 
ATOM      8  C   LIG    1       -3.864 -12.781 -17.991  0.00  0.00    -0.012 A 
ATOM      9  C   LIG    1       -3.481 -12.520 -19.289  0.00  0.00    -0.091 A 
ATOM     10  S   LIG    1       -2.742 -13.491 -20.580  0.00  0.00    +0.217 S 
ENDROOT
BRANCH   8  11
ATOM     11  N   LIG    1       -3.665 -14.129 -17.412  0.00  0.00    +0.022 N 
ATOM     12  O   LIG    1       -3.560 -14.263 -16.215  0.00  0.00    -0.109 OA
ATOM     13  O   LIG    1       -3.609 -15.096 -18.136  0.00  0.00    -0.124 OA
ENDBRANCH   8  11
BRANCH   1  14
ATOM     14  C   LIG    1       -2.146 -12.335 -23.206  0.00  0.00    +0.549 C 
ATOM     15  O   LIG    1       -2.912 -12.520 -24.132  0.00  0.00    -0.441 OA
BRANCH  14  16
ATOM     16  O   LIG    1       -0.822 -12.227 -23.436  0.00  0.00    -0.343 OA
BRANCH  16  17
ATOM     17  C   LIG    1       -0.011 -11.762 -22.356  0.00  0.00    +0.400 C 
ATOM     18  C   LIG    1        1.242 -12.632 -22.245  0.00  0.00    +0.089 C 
BRANCH  17  19
ATOM     19  O   LIG    1        0.371 -10.406 -22.597  0.00  0.00    -0.348 OA
BRANCH  19  20
ATOM     20  C   LIG    1        0.510  -9.613 -21.522  0.00  0.00    +0.462 C 
ATOM     21  O   LIG    1        1.357  -9.857 -20.696  0.00  0.00    -0.489 OA
BRANCH  20  23
ATOM     22  C   LIG    1       -0.972  -8.421 -19.931  0.00  0.00    +0.059 C 
ATOM     23  C   LIG    1       -0.392  -8.418 -21.347  0.00  0.00    +0.027 C 
ATOM     24  C   LIG    1        0.413  -7.135 -21.566  0.00  0.00    +0.064 C 
ENDBRANCH  20  23
ENDBRANCH  19  20
ENDBRANCH  17  19
ENDBRANCH  16  17
ENDBRANCH  14  16
ENDBRANCH   1  14
BRANCH   6  25
ATOM     25  O   LIG    1       -5.173  -9.517 -17.049  0.00  0.00    -0.468 OA
ATOM     26  H   LIG    1       -5.726  -8.907 -17.556  0.00  0.00    +0.401 HD
ENDBRANCH   6  25
BRANCH   7  27
ATOM     27  O   LIG    1       -4.816 -12.013 -15.950  0.00  0.00    -0.467 OA
ATOM     28  H   LIG    1       -5.726 -12.329 -15.864  0.00  0.00    +0.412 HD
ENDBRANCH   7  27
TORSDOF 9
ENDMDL
MODEL 8
REMARK VINA RESULT:      -5.5      2.586      3.543
REMARK  Name = CHEMBL1089538
REMARK                            x       y       z     vdW  Elec       q    Type
REMARK                         _______ _______ _______ _____ _____    ______ ____
ROOT
ATOM      1  C   LIG    1       -1.134 -10.158 -21.552  0.00  0.00    -0.177 A 
ATOM      2  C   LIG    1       -1.680  -9.727 -20.380  0.00  0.00    +0.028 A 
ATOM      3 CL   LIG    1       -1.376  -8.112 -19.820  0.00  0.00    +0.005 Cl
ATOM      4  C   LIG    1       -2.489 -10.594 -19.623  0.00  0.00    -0.084 A 
ATOM      5  C   LIG    1       -3.139 -10.332 -18.388  0.00  0.00    +0.135 A 
ATOM      6  C   LIG    1       -3.892 -11.287 -17.781  0.00  0.00    +0.095 A 
ATOM      7  C   LIG    1       -4.055 -12.556 -18.345  0.00  0.00    +0.192 A 
ATOM      8  C   LIG    1       -3.436 -12.849 -19.548  0.00  0.00    -0.012 A 
ATOM      9  C   LIG    1       -2.671 -11.886 -20.170  0.00  0.00    -0.091 A 
ATOM     10  S   LIG    1       -1.736 -11.833 -21.679  0.00  0.00    +0.217 S 
ENDROOT
BRANCH   8  11
ATOM     11  N   LIG    1       -3.594 -14.186 -20.162  0.00  0.00    +0.022 N 
ATOM     12  O   LIG    1       -3.145 -15.162 -19.608  0.00  0.00    -0.109 OA
ATOM     13  O   LIG    1       -4.173 -14.303 -21.217  0.00  0.00    -0.124 OA
ENDBRANCH   8  11
BRANCH   1  14
ATOM     14  C   LIG    1       -0.272  -9.425 -22.482  0.00  0.00    +0.549 C 
ATOM     15  O   LIG    1       -0.764  -8.676 -23.305  0.00  0.00    -0.441 OA
BRANCH  14  16
ATOM     16  O   LIG    1        1.066  -9.580 -22.426  0.00  0.00    -0.343 OA
BRANCH  16  17
ATOM     17  C   LIG    1        1.753  -8.910 -21.368  0.00  0.00    +0.400 C 
ATOM     18  C   LIG    1        2.652  -9.905 -20.631  0.00  0.00    +0.089 C 
BRANCH  17  19
ATOM     19  O   LIG    1        2.553  -7.856 -21.909  0.00  0.00    -0.348 OA
BRANCH  19  20
ATOM     20  C   LIG    1        2.052  -6.613 -21.836  0.00  0.00    +0.462 C 
ATOM     21  O   LIG    1        1.688  -6.169 -20.773  0.00  0.00    -0.489 OA
BRANCH  20  23
ATOM     22  C   LIG    1        2.259  -6.629 -24.307  0.00  0.00    +0.059 C 
ATOM     23  C   LIG    1        1.943  -5.771 -23.081  0.00  0.00    +0.027 C 
ATOM     24  C   LIG    1        0.521  -5.216 -23.200  0.00  0.00    +0.064 C 
ENDBRANCH  20  23
ENDBRANCH  19  20
ENDBRANCH  17  19
ENDBRANCH  16  17
ENDBRANCH  14  16
ENDBRANCH   1  14
BRANCH   6  25
ATOM     25  O   LIG    1       -4.502 -11.001 -16.598  0.00  0.00    -0.468 OA
ATOM     26  H   LIG    1       -4.004 -11.289 -15.820  0.00  0.00    +0.401 HD
ENDBRANCH   6  25
BRANCH   7  27
ATOM     27  O   LIG    1       -4.812 -13.494 -17.718  0.00  0.00    -0.467 OA
ATOM     28  H   LIG    1       -4.932 -14.308 -18.226  0.00  0.00    +0.412 HD
ENDBRANCH   7  27
TORSDOF 9
ENDMDL
MODEL 9
REMARK VINA RESULT:      -5.5      3.238      7.269
REMARK  Name = CHEMBL1089538
REMARK                            x       y       z     vdW  Elec       q    Type
REMARK                         _______ _______ _______ _____ _____    ______ ____
ROOT
ATOM      1  C   LIG    1       -0.764 -11.223 -22.319  0.00  0.00    -0.177 A 
ATOM      2  C   LIG    1       -0.851  -9.885 -22.075  0.00  0.00    +0.028 A 
ATOM      3 CL   LIG    1       -2.372  -9.066 -22.252  0.00  0.00    +0.005 Cl
ATOM      4  C   LIG    1        0.293  -9.168 -21.681  0.00  0.00    -0.084 A 
ATOM      5  C   LIG    1        0.402  -7.783 -21.386  0.00  0.00    +0.135 A 
ATOM      6  C   LIG    1        1.592  -7.241 -21.017  0.00  0.00    +0.095 A 
ATOM      7  C   LIG    1        2.749  -8.021 -20.914  0.00  0.00    +0.192 A 
ATOM      8  C   LIG    1        2.682  -9.374 -21.194  0.00  0.00    -0.012 A 
ATOM      9  C   LIG    1        1.479  -9.932 -21.569  0.00  0.00    -0.091 A 
ATOM     10  S   LIG    1        0.956 -11.574 -21.998  0.00  0.00    +0.217 S 
ENDROOT
BRANCH   8  11
ATOM     11  N   LIG    1        3.894 -10.217 -21.092  0.00  0.00    +0.022 N 
ATOM     12  O   LIG    1        4.765 -10.127 -21.925  0.00  0.00    -0.109 OA
ATOM     13  O   LIG    1        4.014 -10.997 -20.175  0.00  0.00    -0.124 OA
ENDBRANCH   8  11
BRANCH   1  14
ATOM     14  C   LIG    1       -1.822 -12.147 -22.734  0.00  0.00    +0.549 C 
ATOM     15  O   LIG    1       -2.147 -12.211 -23.905  0.00  0.00    -0.441 OA
BRANCH  14  16
ATOM     16  O   LIG    1       -2.433 -12.927 -21.820  0.00  0.00    -0.343 OA
BRANCH  16  17
ATOM     17  C   LIG    1       -3.457 -12.320 -21.030  0.00  0.00    +0.400 C 
ATOM     18  C   LIG    1       -4.799 -12.993 -21.326  0.00  0.00    +0.089 C 
BRANCH  17  19
ATOM     19  O   LIG    1       -3.144 -12.472 -19.644  0.00  0.00    -0.348 OA
BRANCH  19  20
ATOM     20  C   LIG    1       -3.442 -11.442 -18.836  0.00  0.00    +0.462 C 
ATOM     21  O   LIG    1       -3.468 -10.317 -19.275  0.00  0.00    -0.489 OA
BRANCH  20  23
ATOM     22  C   LIG    1       -4.944 -10.841 -16.957  0.00  0.00    +0.059 C 
ATOM     23  C   LIG    1       -3.744 -11.690 -17.380  0.00  0.00    +0.027 C 
ATOM     24  C   LIG    1       -4.067 -13.171 -17.171  0.00  0.00    +0.064 C 
ENDBRANCH  20  23
ENDBRANCH  19  20
ENDBRANCH  17  19
ENDBRANCH  16  17
ENDBRANCH  14  16
ENDBRANCH   1  14
BRANCH   6  25
ATOM     25  O   LIG    1        1.661  -5.910 -20.742  0.00  0.00    -0.468 OA
ATOM     26  H   LIG    1        1.477  -5.341 -21.502  0.00  0.00    +0.401 HD
ENDBRANCH   6  25
BRANCH   7  27
ATOM     27  O   LIG    1        3.928  -7.454 -20.543  0.00  0.00    -0.467 OA
ATOM     28  H   LIG    1        3.881  -6.953 -19.718  0.00  0.00    +0.412 HD
ENDBRANCH   7  27
TORSDOF 9
ENDMDL
