MODEL 1
REMARK VINA RESULT:      -7.3      0.000      0.000
REMARK  Name = CHEMBL64275
REMARK                            x       y       z     vdW  Elec       q    Type
REMARK                         _______ _______ _______ _____ _____    ______ ____
ROOT
ATOM      1  C   LIG    1       -6.708  -2.346 -19.161  0.00  0.00    -0.112 A 
ATOM      2  C   LIG    1       -5.467  -2.021 -19.712  0.00  0.00    +0.034 A 
ATOM      3  C   LIG    1       -4.928  -0.765 -19.507  0.00  0.00    +0.091 A 
ATOM      4  C   LIG    1       -5.622   0.176 -18.752  0.00  0.00    +0.083 A 
ATOM      5  C   LIG    1       -6.859  -0.144 -18.200  0.00  0.00    +0.092 A 
ATOM      6  C   LIG    1       -7.405  -1.397 -18.408  0.00  0.00    +0.074 A 
ENDROOT
BRANCH   1   9
ATOM      7  N   LIG    1       -8.472  -3.816 -20.006  0.00  0.00    -0.726 N 
ATOM      8  H   LIG    1       -8.946  -3.027 -20.314  0.00  0.00    +0.401 HD
ATOM      9  C   LIG    1       -7.286  -3.687 -19.378  0.00  0.00    +0.560 C 
ATOM     10  O   LIG    1       -6.692  -4.675 -18.993  0.00  0.00    -0.529 OA
BRANCH   7  11
ATOM     11  C   LIG    1       -9.046  -5.147 -20.222  0.00  0.00    +0.259 C 
BRANCH  11  13
ATOM     12  C   LIG    1       -9.038  -4.143 -22.509  0.00  0.00    +0.029 C 
ATOM     13  C   LIG    1       -9.673  -5.211 -21.616  0.00  0.00    +0.003 C 
ENDBRANCH  11  13
ENDBRANCH   7  11
ENDBRANCH   1   9
BRANCH   3  14
ATOM     14  O   LIG    1       -3.719  -0.447 -20.044  0.00  0.00    -0.481 OA
ATOM     15  H   LIG    1       -3.013  -1.068 -19.818  0.00  0.00    +0.392 HD
ENDBRANCH   3  14
BRANCH   4  16
ATOM     16  O   LIG    1       -5.090   1.411 -18.551  0.00  0.00    -0.473 OA
ATOM     17  H   LIG    1       -4.566   1.740 -19.294  0.00  0.00    +0.390 HD
ENDBRANCH   4  16
BRANCH   5  18
ATOM     18  O   LIG    1       -7.534   0.777 -17.462  0.00  0.00    -0.480 OA
ATOM     19  H   LIG    1       -8.363   0.448 -17.086  0.00  0.00    +0.393 HD
ENDBRANCH   5  18
TORSDOF 6
ENDMDL
MODEL 2
REMARK VINA RESULT:      -7.3      0.077      2.142
REMARK  Name = CHEMBL64275
REMARK                            x       y       z     vdW  Elec       q    Type
REMARK                         _______ _______ _______ _____ _____    ______ ____
ROOT
ATOM      1  C   LIG    1       -6.735  -2.352 -19.193  0.00  0.00    -0.112 A 
ATOM      2  C   LIG    1       -7.418  -1.426 -18.401  0.00  0.00    +0.034 A 
ATOM      3  C   LIG    1       -6.876  -0.174 -18.180  0.00  0.00    +0.091 A 
ATOM      4  C   LIG    1       -5.651   0.165 -18.747  0.00  0.00    +0.083 A 
ATOM      5  C   LIG    1       -4.968  -0.755 -19.539  0.00  0.00    +0.092 A 
ATOM      6  C   LIG    1       -5.503  -2.011 -19.757  0.00  0.00    +0.074 A 
ENDROOT
BRANCH   1   9
ATOM      7  N   LIG    1       -8.471  -3.815 -20.106  0.00  0.00    -0.726 N 
ATOM      8  H   LIG    1       -8.926  -3.024 -20.437  0.00  0.00    +0.401 HD
ATOM      9  C   LIG    1       -7.311  -3.690 -19.430  0.00  0.00    +0.560 C 
ATOM     10  O   LIG    1       -6.740  -4.680 -19.017  0.00  0.00    -0.529 OA
BRANCH   7  11
ATOM     11  C   LIG    1       -9.043  -5.143 -20.342  0.00  0.00    +0.259 C 
BRANCH  11  13
ATOM     12  C   LIG    1       -9.020  -4.091 -22.608  0.00  0.00    +0.029 C 
ATOM     13  C   LIG    1       -9.635  -5.200 -21.751  0.00  0.00    +0.003 C 
ENDBRANCH  11  13
ENDBRANCH   7  11
ENDBRANCH   1   9
BRANCH   3  14
ATOM     14  O   LIG    1       -7.540   0.728 -17.408  0.00  0.00    -0.481 OA
ATOM     15  H   LIG    1       -7.258   0.736 -16.483  0.00  0.00    +0.392 HD
ENDBRANCH   3  14
BRANCH   4  16
ATOM     16  O   LIG    1       -5.120   1.397 -18.530  0.00  0.00    -0.473 OA
ATOM     17  H   LIG    1       -5.753   2.045 -18.190  0.00  0.00    +0.390 HD
ENDBRANCH   4  16
BRANCH   5  18
ATOM     18  O   LIG    1       -3.772  -0.420 -20.092  0.00  0.00    -0.480 OA
ATOM     19  H   LIG    1       -3.540   0.513 -19.990  0.00  0.00    +0.393 HD
ENDBRANCH   5  18
TORSDOF 6
ENDMDL
MODEL 3
REMARK VINA RESULT:      -7.2      1.390      2.907
REMARK  Name = CHEMBL64275
REMARK                            x       y       z     vdW  Elec       q    Type
REMARK                         _______ _______ _______ _____ _____    ______ ____
ROOT
ATOM      1  C   LIG    1       -6.919  -2.233 -19.154  0.00  0.00    -0.112 A 
ATOM      2  C   LIG    1       -7.579  -1.275 -18.380  0.00  0.00    +0.034 A 
ATOM      3  C   LIG    1       -6.969  -0.064 -18.114  0.00  0.00    +0.091 A 
ATOM      4  C   LIG    1       -5.698   0.202 -18.616  0.00  0.00    +0.083 A 
ATOM      5  C   LIG    1       -5.038  -0.751 -19.388  0.00  0.00    +0.092 A 
ATOM      6  C   LIG    1       -5.641  -1.966 -19.652  0.00  0.00    +0.074 A 
ENDROOT
BRANCH   1   9
ATOM      7  N   LIG    1       -8.308  -4.135 -18.489  0.00  0.00    -0.726 N 
ATOM      8  H   LIG    1       -8.413  -3.721 -17.618  0.00  0.00    +0.401 HD
ATOM      9  C   LIG    1       -7.569  -3.527 -19.439  0.00  0.00    +0.560 C 
ATOM     10  O   LIG    1       -7.438  -4.046 -20.531  0.00  0.00    -0.529 OA
BRANCH   7  11
ATOM     11  C   LIG    1       -8.952  -5.420 -18.773  0.00  0.00    +0.259 C 
BRANCH  11  13
ATOM     12  C   LIG    1       -7.081  -6.884 -18.000  0.00  0.00    +0.029 C 
ATOM     13  C   LIG    1       -8.522  -6.448 -17.724  0.00  0.00    +0.003 C 
ENDBRANCH  11  13
ENDBRANCH   7  11
ENDBRANCH   1   9
BRANCH   3  14
ATOM     14  O   LIG    1       -7.610   0.870 -17.361  0.00  0.00    -0.481 OA
ATOM     15  H   LIG    1       -7.016   1.477 -16.898  0.00  0.00    +0.392 HD
ENDBRANCH   3  14
BRANCH   4  16
ATOM     16  O   LIG    1       -5.099   1.393 -18.354  0.00  0.00    -0.473 OA
ATOM     17  H   LIG    1       -4.198   1.466 -18.699  0.00  0.00    +0.390 HD
ENDBRANCH   4  16
BRANCH   5  18
ATOM     18  O   LIG    1       -3.797  -0.488 -19.878  0.00  0.00    -0.480 OA
ATOM     19  H   LIG    1       -3.146  -1.178 -19.688  0.00  0.00    +0.393 HD
ENDBRANCH   5  18
TORSDOF 6
ENDMDL
MODEL 4
REMARK VINA RESULT:      -6.6      8.429     10.146
REMARK  Name = CHEMBL64275
REMARK                            x       y       z     vdW  Elec       q    Type
REMARK                         _______ _______ _______ _____ _____    ______ ____
ROOT
ATOM      1  C   LIG    1       -3.994 -10.532 -18.571  0.00  0.00    -0.112 A 
ATOM      2  C   LIG    1       -4.791  -9.581 -17.929  0.00  0.00    +0.034 A 
ATOM      3  C   LIG    1       -5.425  -9.901 -16.743  0.00  0.00    +0.091 A 
ATOM      4  C   LIG    1       -5.271 -11.169 -16.190  0.00  0.00    +0.083 A 
ATOM      5  C   LIG    1       -4.477 -12.118 -16.827  0.00  0.00    +0.092 A 
ATOM      6  C   LIG    1       -3.845 -11.806 -18.016  0.00  0.00    +0.074 A 
ENDROOT
BRANCH   1   9
ATOM      7  N   LIG    1       -2.164  -9.491 -19.819  0.00  0.00    -0.726 N 
ATOM      8  H   LIG    1       -1.782  -9.209 -18.972  0.00  0.00    +0.401 HD
ATOM      9  C   LIG    1       -3.315 -10.193 -19.837  0.00  0.00    +0.560 C 
ATOM     10  O   LIG    1       -3.793 -10.547 -20.897  0.00  0.00    -0.529 OA
BRANCH   7  11
ATOM     11  C   LIG    1       -1.490  -9.155 -21.075  0.00  0.00    +0.259 C 
BRANCH  11  13
ATOM     12  C   LIG    1       -0.399  -7.217 -22.214  0.00  0.00    +0.029 C 
ATOM     13  C   LIG    1       -0.618  -7.915 -20.870  0.00  0.00    +0.003 C 
ENDBRANCH  11  13
ENDBRANCH   7  11
ENDBRANCH   1   9
BRANCH   3  14
ATOM     14  O   LIG    1       -6.202  -8.977 -16.117  0.00  0.00    -0.481 OA
ATOM     15  H   LIG    1       -7.036  -8.792 -16.569  0.00  0.00    +0.392 HD
ENDBRANCH   3  14
BRANCH   4  16
ATOM     16  O   LIG    1       -5.896 -11.481 -15.024  0.00  0.00    -0.473 OA
ATOM     17  H   LIG    1       -5.292 -11.669 -14.291  0.00  0.00    +0.390 HD
ENDBRANCH   4  16
BRANCH   5  18
ATOM     18  O   LIG    1       -4.327 -13.356 -16.284  0.00  0.00    -0.480 OA
ATOM     19  H   LIG    1       -4.305 -13.360 -15.317  0.00  0.00    +0.393 HD
ENDBRANCH   5  18
TORSDOF 6
ENDMDL
MODEL 5
REMARK VINA RESULT:      -6.5      8.434     10.121
REMARK  Name = CHEMBL64275
REMARK                            x       y       z     vdW  Elec       q    Type
REMARK                         _______ _______ _______ _____ _____    ______ ____
ROOT
ATOM      1  C   LIG    1       -4.016 -10.509 -18.564  0.00  0.00    -0.112 A 
ATOM      2  C   LIG    1       -3.868 -11.782 -18.007  0.00  0.00    +0.034 A 
ATOM      3  C   LIG    1       -4.502 -12.091 -16.818  0.00  0.00    +0.091 A 
ATOM      4  C   LIG    1       -5.286 -11.137 -16.176  0.00  0.00    +0.083 A 
ATOM      5  C   LIG    1       -5.435  -9.868 -16.729  0.00  0.00    +0.092 A 
ATOM      6  C   LIG    1       -4.799  -9.551 -17.915  0.00  0.00    +0.074 A 
ENDROOT
BRANCH   1   9
ATOM      7  N   LIG    1       -2.223  -9.422 -19.825  0.00  0.00    -0.726 N 
ATOM      8  H   LIG    1       -1.863  -9.099 -18.984  0.00  0.00    +0.401 HD
ATOM      9  C   LIG    1       -3.340 -10.176 -19.833  0.00  0.00    +0.560 C 
ATOM     10  O   LIG    1       -3.791 -10.582 -20.887  0.00  0.00    -0.529 OA
BRANCH   7  11
ATOM     11  C   LIG    1       -1.552  -9.090 -21.085  0.00  0.00    +0.259 C 
BRANCH  11  13
ATOM     12  C   LIG    1        0.863  -8.636 -20.637  0.00  0.00    +0.029 C 
ATOM     13  C   LIG    1       -0.512  -7.996 -20.836  0.00  0.00    +0.003 C 
ENDBRANCH  11  13
ENDBRANCH   7  11
ENDBRANCH   1   9
BRANCH   3  14
ATOM     14  O   LIG    1       -4.358 -13.330 -16.273  0.00  0.00    -0.481 OA
ATOM     15  H   LIG    1       -3.488 -13.724 -16.417  0.00  0.00    +0.392 HD
ENDBRANCH   3  14
BRANCH   4  16
ATOM     16  O   LIG    1       -5.908 -11.444 -15.007  0.00  0.00    -0.473 OA
ATOM     17  H   LIG    1       -5.319 -11.463 -14.240  0.00  0.00    +0.390 HD
ENDBRANCH   4  16
BRANCH   5  18
ATOM     18  O   LIG    1       -6.202  -8.938 -16.101  0.00  0.00    -0.480 OA
ATOM     19  H   LIG    1       -7.151  -9.124 -16.134  0.00  0.00    +0.393 HD
ENDBRANCH   5  18
TORSDOF 6
ENDMDL
MODEL 6
REMARK VINA RESULT:      -6.4      2.948      5.564
REMARK  Name = CHEMBL64275
REMARK                            x       y       z     vdW  Elec       q    Type
REMARK                         _______ _______ _______ _____ _____    ______ ____
ROOT
ATOM      1  C   LIG    1       -4.909  -0.469 -19.503  0.00  0.00    -0.112 A 
ATOM      2  C   LIG    1       -5.093  -1.754 -20.018  0.00  0.00    +0.034 A 
ATOM      3  C   LIG    1       -6.208  -2.488 -19.659  0.00  0.00    +0.091 A 
ATOM      4  C   LIG    1       -7.147  -1.947 -18.786  0.00  0.00    +0.083 A 
ATOM      5  C   LIG    1       -6.967  -0.665 -18.272  0.00  0.00    +0.092 A 
ATOM      6  C   LIG    1       -5.850   0.070 -18.622  0.00  0.00    +0.074 A 
ENDROOT
BRANCH   1   9
ATOM      7  N   LIG    1       -3.277   0.297 -21.158  0.00  0.00    -0.726 N 
ATOM      8  H   LIG    1       -3.743  -0.234 -21.824  0.00  0.00    +0.401 HD
ATOM      9  C   LIG    1       -3.719   0.316 -19.884  0.00  0.00    +0.560 C 
ATOM     10  O   LIG    1       -3.136   0.982 -19.050  0.00  0.00    -0.529 OA
BRANCH   7  11
ATOM     11  C   LIG    1       -2.096   1.076 -21.537  0.00  0.00    +0.259 C 
BRANCH  11  13
ATOM     12  C   LIG    1       -0.427  -0.662 -22.194  0.00  0.00    +0.029 C 
ATOM     13  C   LIG    1       -1.396   0.400 -22.717  0.00  0.00    +0.003 C 
ENDBRANCH  11  13
ENDBRANCH   7  11
ENDBRANCH   1   9
BRANCH   3  14
ATOM     14  O   LIG    1       -6.389  -3.740 -20.159  0.00  0.00    -0.481 OA
ATOM     15  H   LIG    1       -7.124  -3.813 -20.782  0.00  0.00    +0.392 HD
ENDBRANCH   3  14
BRANCH   4  16
ATOM     16  O   LIG    1       -8.244  -2.669 -18.435  0.00  0.00    -0.473 OA
ATOM     17  H   LIG    1       -8.159  -3.619 -18.598  0.00  0.00    +0.390 HD
ENDBRANCH   4  16
BRANCH   5  18
ATOM     18  O   LIG    1       -7.887  -0.139 -17.420  0.00  0.00    -0.480 OA
ATOM     19  H   LIG    1       -8.701   0.155 -17.853  0.00  0.00    +0.393 HD
ENDBRANCH   5  18
TORSDOF 6
ENDMDL
MODEL 7
REMARK VINA RESULT:      -6.2      8.360      9.915
REMARK  Name = CHEMBL64275
REMARK                            x       y       z     vdW  Elec       q    Type
REMARK                         _______ _______ _______ _____ _____    ______ ____
ROOT
ATOM      1  C   LIG    1       -3.864 -10.470 -18.583  0.00  0.00    -0.112 A 
ATOM      2  C   LIG    1       -4.715  -9.569 -17.938  0.00  0.00    +0.034 A 
ATOM      3  C   LIG    1       -5.394  -9.956 -16.799  0.00  0.00    +0.091 A 
ATOM      4  C   LIG    1       -5.231 -11.243 -16.293  0.00  0.00    +0.083 A 
ATOM      5  C   LIG    1       -4.382 -12.143 -16.932  0.00  0.00    +0.092 A 
ATOM      6  C   LIG    1       -3.706 -11.763 -18.076  0.00  0.00    +0.074 A 
ENDROOT
BRANCH   1   9
ATOM      7  N   LIG    1       -3.583 -10.443 -21.013  0.00  0.00    -0.726 N 
ATOM      8  H   LIG    1       -4.382 -10.990 -21.085  0.00  0.00    +0.401 HD
ATOM      9  C   LIG    1       -3.137 -10.059 -19.800  0.00  0.00    +0.560 C 
ATOM     10  O   LIG    1       -2.137  -9.374 -19.710  0.00  0.00    -0.529 OA
BRANCH   7  11
ATOM     11  C   LIG    1       -2.862 -10.036 -22.222  0.00  0.00    +0.259 C 
BRANCH  11  13
ATOM     12  C   LIG    1       -5.204 -10.394 -23.014  0.00  0.00    +0.029 C 
ATOM     13  C   LIG    1       -3.866  -9.724 -23.333  0.00  0.00    +0.003 C 
ENDBRANCH  11  13
ENDBRANCH   7  11
ENDBRANCH   1   9
BRANCH   3  14
ATOM     14  O   LIG    1       -6.223  -9.080 -16.170  0.00  0.00    -0.481 OA
ATOM     15  H   LIG    1       -7.099  -9.009 -16.574  0.00  0.00    +0.392 HD
ENDBRANCH   3  14
BRANCH   4  16
ATOM     16  O   LIG    1       -5.899 -11.621 -15.172  0.00  0.00    -0.473 OA
ATOM     17  H   LIG    1       -6.684 -11.089 -14.982  0.00  0.00    +0.390 HD
ENDBRANCH   4  16
BRANCH   5  18
ATOM     18  O   LIG    1       -4.224 -13.399 -16.435  0.00  0.00    -0.480 OA
ATOM     19  H   LIG    1       -3.504 -13.897 -16.847  0.00  0.00    +0.393 HD
ENDBRANCH   5  18
TORSDOF 6
ENDMDL
MODEL 8
REMARK VINA RESULT:      -6.2      3.022      5.897
REMARK  Name = CHEMBL64275
REMARK                            x       y       z     vdW  Elec       q    Type
REMARK                         _______ _______ _______ _____ _____    ______ ____
ROOT
ATOM      1  C   LIG    1       -4.941  -0.453 -19.487  0.00  0.00    -0.112 A 
ATOM      2  C   LIG    1       -5.855   0.062 -18.566  0.00  0.00    +0.034 A 
ATOM      3  C   LIG    1       -6.962  -0.682 -18.204  0.00  0.00    +0.091 A 
ATOM      4  C   LIG    1       -7.166  -1.944 -18.755  0.00  0.00    +0.083 A 
ATOM      5  C   LIG    1       -6.255  -2.461 -19.673  0.00  0.00    +0.092 A 
ATOM      6  C   LIG    1       -5.150  -1.718 -20.044  0.00  0.00    +0.074 A 
ENDROOT
BRANCH   1   9
ATOM      7  N   LIG    1       -3.284   0.269 -21.136  0.00  0.00    -0.726 N 
ATOM      8  H   LIG    1       -3.721  -0.302 -21.787  0.00  0.00    +0.401 HD
ATOM      9  C   LIG    1       -3.758   0.339 -19.876  0.00  0.00    +0.560 C 
ATOM     10  O   LIG    1       -3.211   1.056 -19.061  0.00  0.00    -0.529 OA
BRANCH   7  11
ATOM     11  C   LIG    1       -2.110   1.056 -21.522  0.00  0.00    +0.259 C 
BRANCH  11  13
ATOM     12  C   LIG    1       -0.871   0.625 -23.649  0.00  0.00    +0.029 C 
ATOM     13  C   LIG    1       -1.091   0.146 -22.212  0.00  0.00    +0.003 C 
ENDBRANCH  11  13
ENDBRANCH   7  11
ENDBRANCH   1   9
BRANCH   3  14
ATOM     14  O   LIG    1       -7.855  -0.181 -17.307  0.00  0.00    -0.481 OA
ATOM     15  H   LIG    1       -7.722  -0.497 -16.403  0.00  0.00    +0.392 HD
ENDBRANCH   3  14
BRANCH   4  16
ATOM     16  O   LIG    1       -8.255  -2.674 -18.398  0.00  0.00    -0.473 OA
ATOM     17  H   LIG    1       -8.322  -2.841 -17.447  0.00  0.00    +0.390 HD
ENDBRANCH   4  16
BRANCH   5  18
ATOM     18  O   LIG    1       -6.456  -3.693 -20.210  0.00  0.00    -0.480 OA
ATOM     19  H   LIG    1       -5.847  -3.913 -20.929  0.00  0.00    +0.393 HD
ENDBRANCH   5  18
TORSDOF 6
ENDMDL
MODEL 9
REMARK VINA RESULT:      -6.2      8.360      9.762
REMARK  Name = CHEMBL64275
REMARK                            x       y       z     vdW  Elec       q    Type
REMARK                         _______ _______ _______ _____ _____    ______ ____
ROOT
ATOM      1  C   LIG    1       -3.926 -10.551 -18.595  0.00  0.00    -0.112 A 
ATOM      2  C   LIG    1       -3.797 -11.820 -18.027  0.00  0.00    +0.034 A 
ATOM      3  C   LIG    1       -4.463 -12.122 -16.854  0.00  0.00    +0.091 A 
ATOM      4  C   LIG    1       -5.262 -11.163 -16.239  0.00  0.00    +0.083 A 
ATOM      5  C   LIG    1       -5.393  -9.896 -16.803  0.00  0.00    +0.092 A 
ATOM      6  C   LIG    1       -4.724  -9.587 -17.972  0.00  0.00    +0.074 A 
ENDROOT
BRANCH   1   9
ATOM      7  N   LIG    1       -3.758 -10.558 -21.036  0.00  0.00    -0.726 N 
ATOM      8  H   LIG    1       -4.615 -11.010 -21.068  0.00  0.00    +0.401 HD
ATOM      9  C   LIG    1       -3.216 -10.225 -19.847  0.00  0.00    +0.560 C 
ATOM     10  O   LIG    1       -2.142  -9.657 -19.807  0.00  0.00    -0.529 OA
BRANCH   7  11
ATOM     11  C   LIG    1       -3.053 -10.235 -22.279  0.00  0.00    +0.259 C 
BRANCH  11  13
ATOM     12  C   LIG    1       -5.391 -10.499 -23.119  0.00  0.00    +0.029 C 
ATOM     13  C   LIG    1       -4.062  -9.771 -23.332  0.00  0.00    +0.003 C 
ENDBRANCH  11  13
ENDBRANCH   7  11
ENDBRANCH   1   9
BRANCH   3  14
ATOM     14  O   LIG    1       -4.338 -13.358 -16.300  0.00  0.00    -0.481 OA
ATOM     15  H   LIG    1       -5.148 -13.884 -16.326  0.00  0.00    +0.392 HD
ENDBRANCH   3  14
BRANCH   4  16
ATOM     16  O   LIG    1       -5.916 -11.461 -15.086  0.00  0.00    -0.473 OA
ATOM     17  H   LIG    1       -5.689 -10.885 -14.343  0.00  0.00    +0.390 HD
ENDBRANCH   4  16
BRANCH   5  18
ATOM     18  O   LIG    1       -6.175  -8.961 -16.200  0.00  0.00    -0.480 OA
ATOM     19  H   LIG    1       -6.479  -9.213 -15.317  0.00  0.00    +0.393 HD
ENDBRANCH   5  18
TORSDOF 6
ENDMDL
