REMARK  Name = CHEMBL64275
REMARK                            x       y       z     vdW  Elec       q    Type
REMARK                         _______ _______ _______ _____ _____    ______ ____
ROOT
ATOM      1  C   LIG    1        1.341  -4.099  -2.293  0.00  0.00    -0.112 A 
ATOM      2  C   LIG    1        0.751  -4.812  -1.247  0.00  0.00    +0.034 A 
ATOM      3  C   LIG    1        0.771  -6.194  -1.257  0.00  0.00    +0.091 A 
ATOM      4  C   LIG    1        1.378  -6.875  -2.308  0.00  0.00    +0.083 A 
ATOM      5  C   LIG    1        1.968  -6.167  -3.352  0.00  0.00    +0.092 A 
ATOM      6  C   LIG    1        1.945  -4.785  -3.350  0.00  0.00    +0.074 A 
ENDROOT
BRANCH   1   9
ATOM      7  N   LIG    1        0.738  -1.962  -1.265  0.00  0.00    -0.726 N 
ATOM      8  H   LIG    1        0.332  -2.457  -0.536  0.00  0.00    +0.401 HD
ATOM      9  C   LIG    1        1.321  -2.623  -2.285  0.00  0.00    +0.560 C 
ATOM     10  O   LIG    1        1.831  -2.003  -3.198  0.00  0.00    -0.529 OA
BRANCH   7  11
ATOM     11  C   LIG    1        0.718  -0.497  -1.257  0.00  0.00    +0.259 C 
BRANCH  11  13
ATOM     12  C   LIG    1       -0.019   1.526   0.010  0.00  0.00    +0.029 C 
ATOM     13  C   LIG    1        0.002  -0.004   0.002  0.00  0.00    +0.003 C 
ENDBRANCH  11  13
ENDBRANCH   7  11
ENDBRANCH   1   9
BRANCH   3  14
ATOM     14  O   LIG    1        0.196  -6.890  -0.239  0.00  0.00    -0.481 OA
ATOM     15  H   LIG    1       -0.737  -7.098  -0.383  0.00  0.00    +0.392 HD
ENDBRANCH   3  14
BRANCH   4  16
ATOM     16  O   LIG    1        1.397  -8.234  -2.316  0.00  0.00    -0.473 OA
ATOM     17  H   LIG    1        0.635  -8.636  -2.756  0.00  0.00    +0.390 HD
ENDBRANCH   4  16
BRANCH   5  18
ATOM     18  O   LIG    1        2.561  -6.835  -4.377  0.00  0.00    -0.480 OA
ATOM     19  H   LIG    1        1.965  -7.036  -5.112  0.00  0.00    +0.393 HD
ENDBRANCH   5  18
TORSDOF 6
