REMARK  Name = CHEMBL355736
REMARK                            x       y       z     vdW  Elec       q    Type
REMARK                         _______ _______ _______ _____ _____    ______ ____
ROOT
ATOM      1  C   LIG    1       -0.017   1.391   0.010  0.00  0.00    +0.149 A 
ATOM      2  C   LIG    1        1.184   2.101   0.002  0.00  0.00    -0.334 A 
ATOM      3  C   LIG    1        2.406   1.413  -0.014  0.00  0.00    +0.089 A 
ATOM      4  C   LIG    1        2.426   0.033  -0.022  0.00  0.00    -0.054 A 
ATOM      5  C   LIG    1        1.232  -0.686  -0.014  0.00  0.00    +0.312 A 
ATOM      6  O   LIG    1        1.256  -2.040  -0.022  0.00  0.00    -0.633 OA
ATOM      7  C   LIG    1        0.002  -0.004   0.002  0.00  0.00    -0.350 A 
ENDROOT
BRANCH   2   8
ATOM      8  C   LIG    1        1.169   3.570   0.010  0.00  0.00    +0.471 C 
ATOM      9  O   LIG    1        2.213   4.188   0.003  0.00  0.00    -0.508 OA
ENDBRANCH   2   8
BRANCH   4  10
ATOM     10  O   LIG    1        3.615  -0.627  -0.038  0.00  0.00    -0.489 OA
ATOM     11  H   LIG    1        3.968  -0.824   0.841  0.00  0.00    +0.362 HD
ENDBRANCH   4  10
BRANCH   7  12
ATOM     12  C   LIG    1       -1.258  -0.758   0.011  0.00  0.00    +0.447 C 
ATOM     13  O   LIG    1       -1.239  -1.971   0.004  0.00  0.00    -0.462 OA
ENDBRANCH   7  12
TORSDOF 3
