REMARK  Name = CHEMBL1244
REMARK                            x       y       z     vdW  Elec       q    Type
REMARK                         _______ _______ _______ _____ _____    ______ ____
ROOT
ATOM      1  C   LIG    1       -0.017   1.373   0.010  0.00  0.00    +0.184 A 
ATOM      2  C   LIG    1        1.187   2.088   0.002  0.00  0.00    -0.311 A 
ATOM      3  C   LIG    1        2.406   1.400  -0.013  0.00  0.00    +0.109 A 
ATOM      4  C   LIG    1        2.415   0.020  -0.021  0.00  0.00    -0.029 A 
ATOM      5  C   LIG    1        1.212  -0.686  -0.013  0.00  0.00    +0.309 A 
ATOM      6  O   LIG    1        1.224  -2.043  -0.021  0.00  0.00    -0.606 OA
ATOM      7  C   LIG    1        0.002  -0.004   0.002  0.00  0.00    -0.203 A 
ENDROOT
BRANCH   7   8
ATOM      8  N   LIG    1       -1.271  -0.760   0.010  0.00  0.00    +0.070 N 
ATOM      9  O   LIG    1       -1.256  -1.968   0.004  0.00  0.00    -0.156 OA
ATOM     10  O   LIG    1       -2.325  -0.168   0.023  0.00  0.00    -0.249 OA
ENDBRANCH   7   8
BRANCH   2  11
ATOM     11  C   LIG    1        1.170   3.557   0.009  0.00  0.00    +0.489 C 
ATOM     12  O   LIG    1        2.213   4.176   0.003  0.00  0.00    -0.495 OA
ENDBRANCH   2  11
BRANCH   4  13
ATOM     13  O   LIG    1        3.598  -0.652  -0.036  0.00  0.00    -0.480 OA
ATOM     14  H   LIG    1        3.948  -0.851   0.843  0.00  0.00    +0.369 HD
ENDBRANCH   4  13
TORSDOF 3
