REMARK  Name = CHEMBL8649
REMARK                            x       y       z     vdW  Elec       q    Type
REMARK                         _______ _______ _______ _____ _____    ______ ____
ROOT
ATOM      1  C   LIG    1        7.282  -2.702   2.800  0.00  0.00    +0.384 C 
ATOM      2  O   LIG    1        7.800  -2.993   1.743  0.00  0.00    -0.447 OA
ENDROOT
BRANCH   1   3
ATOM      3  C   LIG    1        7.936  -3.067   4.064  0.00  0.00    -0.089 A 
ATOM      4  C   LIG    1        7.337  -2.737   5.285  0.00  0.00    -0.047 A 
ATOM      5  C   LIG    1        7.952  -3.081   6.468  0.00  0.00    +0.033 A 
ATOM      6  C   LIG    1        9.167  -3.754   6.453  0.00  0.00    +0.011 A 
ATOM      7  C   LIG    1        9.771  -4.086   5.240  0.00  0.00    +0.273 A 
ATOM      8  O   LIG    1       10.960  -4.745   5.231  0.00  0.00    -0.674 OA
ATOM      9  C   LIG    1        9.158  -3.750   4.050  0.00  0.00    -0.138 A 
BRANCH   9  10
ATOM     10  N   LIG    1        9.794  -4.107   2.762  0.00  0.00    +0.079 N 
ATOM     11  O   LIG    1        9.543  -5.167   2.236  0.00  0.00    -0.173 OA
ATOM     12  O   LIG    1       10.565  -3.339   2.235  0.00  0.00    -0.172 OA
ENDBRANCH   9  10
BRANCH   6  13
ATOM     13  O   LIG    1        9.768  -4.090   7.623  0.00  0.00    -0.481 OA
ATOM     14  H   LIG    1        9.514  -4.960   7.960  0.00  0.00    +0.372 HD
ENDBRANCH   6  13
ENDBRANCH   1   3
BRANCH   1  15
ATOM     15  C   LIG    1        5.967  -1.966   2.818  0.00  0.00    +0.042 C 
BRANCH  15  16
ATOM     16  C   LIG    1        5.507  -1.710   1.381  0.00  0.00    +0.027 C 
BRANCH  16  17
ATOM     17  C   LIG    1        4.171  -0.963   1.399  0.00  0.00    +0.018 C 
BRANCH  17  18
ATOM     18  C   LIG    1        3.711  -0.707  -0.038  0.00  0.00    +0.063 C 
BRANCH  18  22
ATOM     19  C   LIG    1       -0.017   1.378   0.010  0.00  0.00    -0.010 A 
ATOM     20  C   LIG    1        1.171   2.086   0.002  0.00  0.00    +0.001 A 
ATOM     21  C   LIG    1        2.377   1.411  -0.013  0.00  0.00    +0.003 A 
ATOM     22  C   LIG    1        2.396   0.029  -0.020  0.00  0.00    -0.076 A 
ATOM     23  C   LIG    1        1.208  -0.679  -0.012  0.00  0.00    +0.003 A 
ATOM     24  C   LIG    1        0.002  -0.004   0.002  0.00  0.00    +0.001 A 
ENDBRANCH  18  22
ENDBRANCH  17  18
ENDBRANCH  16  17
ENDBRANCH  15  16
ENDBRANCH   1  15
TORSDOF 8
