REMARK  Name = CHEMBL350927
REMARK                            x       y       z     vdW  Elec       q    Type
REMARK                         _______ _______ _______ _____ _____    ______ ____
ROOT
ATOM      1  C   LIG    1        1.165   3.565   0.009  0.00  0.00    +0.565 C 
ATOM      2  N   LIG    1        2.324   4.253   0.002  0.00  0.00    -0.717 N 
ATOM      3  H   LIG    1        3.170   3.778  -0.008  0.00  0.00    +0.398 HD
ATOM      4  O   LIG    1        0.105   4.159   0.022  0.00  0.00    -0.513 OA
ENDROOT
BRANCH   2   5
ATOM      5  C   LIG    1        2.306   5.718   0.010  0.00  0.00    +0.184 C 
ATOM      6  C   LIG    1        1.567   6.225  -1.230  0.00  0.00    +0.024 C 
ATOM      7  C   LIG    1        1.548   7.755  -1.222  0.00  0.00    -0.008 C 
ATOM      8  C   LIG    1        2.984   8.283  -1.233  0.00  0.00    +0.017 C 
ATOM      9  C   LIG    1        3.723   7.776   0.007  0.00  0.00    -0.004 C 
ATOM     10  C   LIG    1        3.007   8.270   1.265  0.00  0.00    +0.017 C 
ATOM     11  C   LIG    1        1.571   7.742   1.276  0.00  0.00    -0.008 C 
ATOM     12  C   LIG    1        0.832   8.250   0.036  0.00  0.00    +0.020 C 
ATOM     13  C   LIG    1        1.590   6.213   1.268  0.00  0.00    +0.024 C 
ATOM     14  C   LIG    1        3.742   6.246  -0.001  0.00  0.00    +0.024 C 
ENDBRANCH   2   5
BRANCH   1  16
ATOM     15  C   LIG    1       -0.017   1.374   0.010  0.00  0.00    +0.183 A 
ATOM     16  C   LIG    1        1.184   2.089   0.002  0.00  0.00    -0.127 A 
ATOM     17  C   LIG    1        2.401   1.404  -0.013  0.00  0.00    +0.105 A 
ATOM     18  C   LIG    1        2.413   0.022  -0.021  0.00  0.00    +0.080 A 
ATOM     19  C   LIG    1        1.212  -0.685  -0.013  0.00  0.00    +0.178 A 
ATOM     20  C   LIG    1        0.002  -0.004   0.002  0.00  0.00    -0.073 A 
BRANCH  20  21
ATOM     21  N   LIG    1       -1.271  -0.760   0.011  0.00  0.00    +0.035 N 
ATOM     22  O   LIG    1       -1.256  -1.969   0.004  0.00  0.00    -0.129 OA
ATOM     23  O   LIG    1       -2.325  -0.168   0.024  0.00  0.00    -0.154 OA
ENDBRANCH  20  21
BRANCH  18  24
ATOM     24  O   LIG    1        3.597  -0.648  -0.036  0.00  0.00    -0.470 OA
ATOM     25  H   LIG    1        3.948  -0.846   0.843  0.00  0.00    +0.399 HD
ENDBRANCH  18  24
BRANCH  19  26
ATOM     26  O   LIG    1        1.225  -2.043  -0.021  0.00  0.00    -0.458 OA
ATOM     27  H   LIG    1        1.237  -2.441   0.861  0.00  0.00    +0.408 HD
ENDBRANCH  19  26
ENDBRANCH   1  16
TORSDOF 5
