REMARK  Name = CHEMBL197115
REMARK                            x       y       z     vdW  Elec       q    Type
REMARK                         _______ _______ _______ _____ _____    ______ ____
ROOT
ATOM      1  C   LIG    1        5.427  -1.666   1.629  0.00  0.00    -0.121 A 
ATOM      2  C   LIG    1        6.215  -2.100   0.556  0.00  0.00    +0.112 A 
ATOM      3  C   LIG    1        7.398  -2.762   0.794  0.00  0.00    +0.056 A 
ATOM      4  C   LIG    1        7.815  -2.999   2.098  0.00  0.00    +0.131 A 
ATOM      5  C   LIG    1        7.036  -2.570   3.173  0.00  0.00    +0.119 A 
ATOM      6  C   LIG    1        5.851  -1.901   2.943  0.00  0.00    +0.004 A 
ENDROOT
BRANCH   6   7
ATOM      7  N   LIG    1        5.026  -1.439   4.082  0.00  0.00    +0.037 N 
ATOM      8  O   LIG    1        5.200  -0.337   4.546  0.00  0.00    -0.132 OA
ATOM      9  O   LIG    1        4.178  -2.164   4.548  0.00  0.00    -0.117 OA
ENDBRANCH   6   7
BRANCH   1  10
ATOM     10  C   LIG    1        4.164  -0.959   1.377  0.00  0.00    +0.383 C 
ATOM     11  O   LIG    1        3.486  -0.579   2.308  0.00  0.00    -0.415 OA
BRANCH  10  12
ATOM     12  C   LIG    1        3.711  -0.707  -0.038  0.00  0.00    +0.113 C 
BRANCH  12  16
ATOM     13  C   LIG    1       -0.017   1.378   0.010  0.00  0.00    +0.009 A 
ATOM     14  C   LIG    1        1.171   2.086   0.002  0.00  0.00    +0.007 A 
ATOM     15  C   LIG    1        2.377   1.411  -0.013  0.00  0.00    +0.014 A 
ATOM     16  C   LIG    1        2.396   0.029  -0.020  0.00  0.00    -0.085 A 
ATOM     17  C   LIG    1        1.208  -0.679  -0.012  0.00  0.00    +0.015 A 
ATOM     18  C   LIG    1        0.002  -0.004   0.002  0.00  0.00    +0.008 A 
ENDBRANCH  12  16
ENDBRANCH  10  12
ENDBRANCH   1  10
BRANCH   4  19
ATOM     19  O   LIG    1        8.983  -3.652   2.327  0.00  0.00    -0.472 OA
ATOM     20  H   LIG    1        9.752  -3.070   2.397  0.00  0.00    +0.403 HD
ENDBRANCH   4  19
BRANCH   5  21
ATOM     21  O   LIG    1        7.447  -2.806   4.448  0.00  0.00    -0.473 OA
ATOM     22  H   LIG    1        7.997  -2.102   4.820  0.00  0.00    +0.404 HD
ENDBRANCH   5  21
TORSDOF 6
