REMARK  Name = CHEMBL1091204
REMARK                            x       y       z     vdW  Elec       q    Type
REMARK                         _______ _______ _______ _____ _____    ______ ____
ROOT
ATOM      1  C   LIG    1        2.756  -1.123  -2.252  0.00  0.00    -0.263 A 
ATOM      2  C   LIG    1        4.091  -1.373  -2.358  0.00  0.00    +0.097 A 
ATOM      3 CL   LIG    1        5.131  -1.135  -0.988  0.00  0.00    -0.035 Cl
ATOM      4  C   LIG    1        4.625  -1.825  -3.578  0.00  0.00    -0.215 A 
ATOM      5  C   LIG    1        5.977  -2.137  -3.881  0.00  0.00    +0.108 A 
ATOM      6  C   LIG    1        6.332  -2.565  -5.122  0.00  0.00    +0.018 A 
ATOM      7  C   LIG    1        5.385  -2.713  -6.141  0.00  0.00    +0.330 A 
ATOM      8  O   LIG    1        5.765  -3.142  -7.373  0.00  0.00    -0.622 OA
ATOM      9  C   LIG    1        4.058  -2.418  -5.883  0.00  0.00    -0.165 A 
ATOM     10  C   LIG    1        3.689  -1.984  -4.628  0.00  0.00    +0.011 A 
ATOM     11  S   LIG    1        2.147  -1.517  -3.883  0.00  0.00    +0.113 S 
ENDROOT
BRANCH   9  12
ATOM     12  N   LIG    1        3.040  -2.568  -6.947  0.00  0.00    +0.062 N 
ATOM     13  O   LIG    1        2.787  -1.638  -7.677  0.00  0.00    -0.160 OA
ATOM     14  O   LIG    1        2.462  -3.621  -7.087  0.00  0.00    -0.161 OA
ENDBRANCH   9  12
BRANCH   1  15
ATOM     15  C   LIG    1        2.004  -0.651  -1.087  0.00  0.00    +0.560 C 
ATOM     16  O   LIG    1        2.582  -0.429  -0.040  0.00  0.00    -0.491 OA
BRANCH  15  17
ATOM     17  O   LIG    1        0.671  -0.465  -1.174  0.00  0.00    -0.341 OA
BRANCH  17  19
ATOM     18  C   LIG    1       -0.019   1.526   0.010  0.00  0.00    +0.030 C 
ATOM     19  C   LIG    1        0.002  -0.004   0.002  0.00  0.00    +0.165 C 
ATOM     20  C   LIG    1       -1.433  -0.534   0.013  0.00  0.00    +0.061 C 
ENDBRANCH  17  19
ENDBRANCH  15  17
ENDBRANCH   1  15
BRANCH   6  21
ATOM     21  O   LIG    1        7.636  -2.854  -5.378  0.00  0.00    -0.478 OA
ATOM     22  H   LIG    1        7.876  -3.775  -5.203  0.00  0.00    +0.378 HD
ENDBRANCH   6  21
TORSDOF 5
