REMARK  Name = CHEMBL1089505
REMARK                            x       y       z     vdW  Elec       q    Type
REMARK                         _______ _______ _______ _____ _____    ______ ____
ROOT
ATOM      1  C   LIG    1        1.439  -4.012   2.323  0.00  0.00    -0.173 A 
ATOM      2  C   LIG    1        2.009  -4.802   3.277  0.00  0.00    +0.026 A 
ATOM      3 CL   LIG    1        2.796  -4.082   4.646  0.00  0.00    +0.004 Cl
ATOM      4  C   LIG    1        1.958  -6.202   3.148  0.00  0.00    -0.083 A 
ATOM      5  C   LIG    1        2.488  -7.182   4.029  0.00  0.00    +0.135 A 
ATOM      6  C   LIG    1        2.353  -8.508   3.757  0.00  0.00    +0.096 A 
ATOM      7  C   LIG    1        1.691  -8.954   2.608  0.00  0.00    +0.191 A 
ATOM      8  C   LIG    1        1.161  -8.027   1.727  0.00  0.00    -0.013 A 
ATOM      9  C   LIG    1        1.294  -6.682   1.995  0.00  0.00    -0.091 A 
ATOM     10  S   LIG    1        0.776  -5.199   1.167  0.00  0.00    +0.214 S 
ENDROOT
BRANCH   8  11
ATOM     11  N   LIG    1        0.457  -8.478   0.506  0.00  0.00    +0.023 N 
ATOM     12  O   LIG    1        1.074  -8.646  -0.520  0.00  0.00    -0.110 OA
ATOM     13  O   LIG    1       -0.735  -8.678   0.534  0.00  0.00    -0.125 OA
ENDBRANCH   8  11
BRANCH   1  14
ATOM     14  C   LIG    1        1.381  -2.550   2.265  0.00  0.00    +0.548 C 
ATOM     15  O   LIG    1        1.890  -1.885   3.147  0.00  0.00    -0.460 OA
BRANCH  14  16
ATOM     16  O   LIG    1        0.761  -1.940   1.234  0.00  0.00    -0.342 OA
BRANCH  16  17
ATOM     17  C   LIG    1        0.742  -0.511   1.242  0.00  0.00    +0.216 C 
BRANCH  17  19
ATOM     18  C   LIG    1       -0.019   1.526   0.010  0.00  0.00    +0.036 C 
ATOM     19  C   LIG    1        0.002  -0.004   0.002  0.00  0.00    +0.029 C 
ENDBRANCH  17  19
ENDBRANCH  16  17
ENDBRANCH  14  16
ENDBRANCH   1  14
BRANCH   6  20
ATOM     20  O   LIG    1        2.874  -9.420   4.622  0.00  0.00    -0.469 OA
ATOM     21  H   LIG    1        2.262  -9.698   5.317  0.00  0.00    +0.401 HD
ENDBRANCH   6  20
BRANCH   7  22
ATOM     22  O   LIG    1        1.570 -10.284   2.359  0.00  0.00    -0.467 OA
ATOM     23  H   LIG    1        0.772 -10.683   2.732  0.00  0.00    +0.412 HD
ENDBRANCH   7  22
TORSDOF 7
