REMARK  Name = CHEMBL1089539
REMARK                            x       y       z     vdW  Elec       q    Type
REMARK                         _______ _______ _______ _____ _____    ______ ____
ROOT
ATOM      1  C   LIG    1       -2.690  -5.047   3.618  0.00  0.00    -0.269 A 
ATOM      2  C   LIG    1       -3.495  -5.106   4.716  0.00  0.00    +0.101 A 
ATOM      3 CL   LIG    1       -5.151  -4.596   4.607  0.00  0.00    -0.034 Cl
ATOM      4  C   LIG    1       -2.983  -5.580   5.936  0.00  0.00    -0.216 A 
ATOM      5  C   LIG    1       -3.660  -5.714   7.178  0.00  0.00    +0.109 A 
ATOM      6  C   LIG    1       -3.015  -6.193   8.275  0.00  0.00    +0.018 A 
ATOM      7  C   LIG    1       -1.669  -6.570   8.223  0.00  0.00    +0.331 A 
ATOM      8  O   LIG    1       -1.046  -7.045   9.334  0.00  0.00    -0.621 OA
ATOM      9  C   LIG    1       -0.977  -6.453   7.030  0.00  0.00    -0.164 A 
ATOM     10  C   LIG    1       -1.623  -5.969   5.914  0.00  0.00    +0.012 A 
ATOM     11  S   LIG    1       -1.135  -5.671   4.233  0.00  0.00    +0.117 S 
ENDROOT
BRANCH   9  12
ATOM     12  N   LIG    1        0.449  -6.846   6.954  0.00  0.00    +0.061 N 
ATOM     13  O   LIG    1        1.313  -6.032   7.182  0.00  0.00    -0.160 OA
ATOM     14  O   LIG    1        0.748  -7.981   6.664  0.00  0.00    -0.161 OA
ENDBRANCH   9  12
BRANCH   1  15
ATOM     15  C   LIG    1       -3.020  -4.591   2.266  0.00  0.00    +0.560 C 
ATOM     16  O   LIG    1       -4.141  -4.193   2.016  0.00  0.00    -0.478 OA
BRANCH  15  17
ATOM     17  O   LIG    1       -2.080  -4.612   1.299  0.00  0.00    -0.349 OA
BRANCH  17  18
ATOM     18  C   LIG    1       -2.472  -4.153   0.003  0.00  0.00    +0.481 C 
BRANCH  18  19
ATOM     19  O   LIG    1       -2.566  -2.727   0.012  0.00  0.00    -0.357 OA
BRANCH  19  20
ATOM     20  C   LIG    1       -1.413  -2.041   0.005  0.00  0.00    +0.458 C 
ATOM     21  O   LIG    1       -0.358  -2.630  -0.009  0.00  0.00    -0.490 OA
BRANCH  20  22
ATOM     22  C   LIG    1       -1.433  -0.534   0.013  0.00  0.00    +0.099 C 
BRANCH  22  24
ATOM     23  C   LIG    1       -0.019   1.526   0.010  0.00  0.00    +0.022 C 
ATOM     24  C   LIG    1        0.002  -0.004   0.002  0.00  0.00    +0.030 C 
ENDBRANCH  22  24
ENDBRANCH  20  22
ENDBRANCH  19  20
ENDBRANCH  18  19
ENDBRANCH  17  18
ENDBRANCH  15  17
ENDBRANCH   1  15
BRANCH   6  25
ATOM     25  O   LIG    1       -3.693  -6.308   9.449  0.00  0.00    -0.478 OA
ATOM     26  H   LIG    1       -4.128  -7.163   9.569  0.00  0.00    +0.378 HD
ENDBRANCH   6  25
TORSDOF 9
