REMARK  Name = CHEMBL160038
REMARK                            x       y       z     vdW  Elec       q    Type
REMARK                         _______ _______ _______ _____ _____    ______ ____
ROOT
ATOM      1  C   LIG    1        5.427  -1.666   1.629  0.00  0.00    -0.293 A 
ATOM      2  C   LIG    1        5.848  -1.906   2.943  0.00  0.00    +0.197 A 
ATOM      3  C   LIG    1        7.032  -2.569   3.176  0.00  0.00    -0.203 A 
ATOM      4  C   LIG    1        7.812  -3.000   2.110  0.00  0.00    +0.309 A 
ATOM      5  O   LIG    1        8.978  -3.653   2.346  0.00  0.00    -0.605 OA
ATOM      6  C   LIG    1        7.400  -2.764   0.799  0.00  0.00    -0.025 A 
ATOM      7  C   LIG    1        6.212  -2.105   0.556  0.00  0.00    +0.094 A 
ENDROOT
BRANCH   3   8
ATOM      8  N   LIG    1        7.475  -2.822   4.565  0.00  0.00    +0.069 N 
ATOM      9  O   LIG    1        8.514  -3.404   4.772  0.00  0.00    -0.155 OA
ATOM     10  O   LIG    1        6.797  -2.447   5.494  0.00  0.00    -0.247 OA
ENDBRANCH   3   8
BRANCH   1  11
ATOM     11  C   LIG    1        4.164  -0.959   1.377  0.00  0.00    +0.412 C 
ATOM     12  O   LIG    1        3.486  -0.579   2.308  0.00  0.00    -0.472 OA
BRANCH  11  13
ATOM     13  C   LIG    1        3.711  -0.707  -0.038  0.00  0.00    +0.082 C 
BRANCH  13  17
ATOM     14  C   LIG    1       -0.017   1.378   0.010  0.00  0.00    -0.008 A 
ATOM     15  C   LIG    1        1.171   2.086   0.002  0.00  0.00    -0.000 A 
ATOM     16  C   LIG    1        2.377   1.411  -0.013  0.00  0.00    +0.011 A 
ATOM     17  C   LIG    1        2.396   0.029  -0.020  0.00  0.00    -0.064 A 
ATOM     18  C   LIG    1        1.208  -0.679  -0.012  0.00  0.00    +0.011 A 
ATOM     19  C   LIG    1        0.002  -0.004   0.002  0.00  0.00    -0.001 A 
ENDBRANCH  13  17
ENDBRANCH  11  13
ENDBRANCH   1  11
BRANCH   6  20
ATOM     20  O   LIG    1        8.168  -3.188  -0.241  0.00  0.00    -0.479 OA
ATOM     21  H   LIG    1        7.959  -4.081  -0.546  0.00  0.00    +0.370 HD
ENDBRANCH   6  20
TORSDOF 5
