REMARK  Name = CHEMBL355017
REMARK                            x       y       z     vdW  Elec       q    Type
REMARK                         _______ _______ _______ _____ _____    ______ ____
ROOT
ATOM      1  C   LIG    1       -0.017   1.378   0.010  0.00  0.00    +0.129 A 
ATOM      2  C   LIG    1        1.170   2.089   0.002  0.00  0.00    -0.034 A 
ATOM      3 CL   LIG    1        1.141   3.825   0.012  0.00  0.00    -0.023 Cl
ATOM      4  C   LIG    1        2.381   1.419  -0.013  0.00  0.00    +0.094 A 
ATOM      5  C   LIG    1        2.405   0.034  -0.021  0.00  0.00    +0.098 A 
ATOM      6  C   LIG    1        1.211  -0.681  -0.013  0.00  0.00    +0.158 A 
ATOM      7  C   LIG    1        0.002  -0.004   0.002  0.00  0.00    -0.056 A 
ENDROOT
BRANCH   7   8
ATOM      8  N   LIG    1       -1.270  -0.761   0.010  0.00  0.00    +0.035 N 
ATOM      9  O   LIG    1       -1.253  -1.970   0.003  0.00  0.00    -0.126 OA
ATOM     10  O   LIG    1       -2.325  -0.171   0.023  0.00  0.00    -0.155 OA
ENDBRANCH   7   8
BRANCH   5  11
ATOM     11  O   LIG    1        3.594  -0.627  -0.037  0.00  0.00    -0.468 OA
ATOM     12  H   LIG    1        3.947  -0.822   0.842  0.00  0.00    +0.401 HD
ENDBRANCH   5  11
BRANCH   6  13
ATOM     13  O   LIG    1        1.231  -2.041  -0.021  0.00  0.00    -0.458 OA
ATOM     14  H   LIG    1        1.245  -2.439   0.860  0.00  0.00    +0.407 HD
ENDBRANCH   6  13
TORSDOF 3
