REMARK  Name = CHEMBL168451
REMARK                            x       y       z     vdW  Elec       q    Type
REMARK                         _______ _______ _______ _____ _____    ______ ____
ROOT
ATOM      1  C   LIG    1        1.171   3.566   0.009  0.00  0.00    +0.565 C 
ATOM      2  N   LIG    1        2.331   4.251   0.002  0.00  0.00    -0.719 N 
ATOM      3  H   LIG    1        3.176   3.775  -0.008  0.00  0.00    +0.399 HD
ATOM      4  O   LIG    1        0.112   4.163   0.022  0.00  0.00    -0.521 OA
ENDROOT
BRANCH   2   5
ATOM      5  C   LIG    1        2.316   5.716   0.010  0.00  0.00    +0.184 C 
ATOM      6  C   LIG    1        1.578   6.225  -1.230  0.00  0.00    +0.024 C 
ATOM      7  C   LIG    1        1.562   7.755  -1.222  0.00  0.00    -0.009 C 
ATOM      8  C   LIG    1        3.000   8.280  -1.233  0.00  0.00    +0.017 C 
ATOM      9  C   LIG    1        3.738   7.771   0.007  0.00  0.00    -0.004 C 
ATOM     10  C   LIG    1        3.023   8.267   1.265  0.00  0.00    +0.017 C 
ATOM     11  C   LIG    1        1.586   7.742   1.276  0.00  0.00    -0.009 C 
ATOM     12  C   LIG    1        0.848   8.251   0.036  0.00  0.00    +0.019 C 
ATOM     13  C   LIG    1        1.601   6.213   1.268  0.00  0.00    +0.024 C 
ATOM     14  C   LIG    1        3.753   6.241  -0.001  0.00  0.00    +0.023 C 
ENDBRANCH   2   5
BRANCH   1  16
ATOM     15  C   LIG    1       -0.017   1.377   0.010  0.00  0.00    +0.088 A 
ATOM     16  C   LIG    1        1.186   2.090   0.002  0.00  0.00    -0.117 A 
ATOM     17  C   LIG    1        2.401   1.402  -0.013  0.00  0.00    +0.069 A 
ATOM     18  C   LIG    1        2.413   0.023  -0.021  0.00  0.00    -0.059 A 
ATOM     19 CL   LIG    1        3.925  -0.830  -0.040  0.00  0.00    -0.040 Cl
ATOM     20  C   LIG    1        1.218  -0.685  -0.014  0.00  0.00    +0.119 A 
ATOM     21  C   LIG    1        0.002  -0.004   0.002  0.00  0.00    +0.091 A 
BRANCH  20  22
ATOM     22  O   LIG    1        1.235  -2.043  -0.022  0.00  0.00    -0.478 OA
ATOM     23  H   LIG    1        1.248  -2.442   0.859  0.00  0.00    +0.401 HD
ENDBRANCH  20  22
BRANCH  21  24
ATOM     24  O   LIG    1       -1.166  -0.700   0.010  0.00  0.00    -0.482 OA
ATOM     25  H   LIG    1       -1.513  -0.896  -0.871  0.00  0.00    +0.400 HD
ENDBRANCH  21  24
ENDBRANCH   1  16
TORSDOF 4
