REMARK  Name = CHEMBL8476
REMARK                            x       y       z     vdW  Elec       q    Type
REMARK                         _______ _______ _______ _____ _____    ______ ____
ROOT
ATOM      1  C   LIG    1        7.223  -2.669   3.048  0.00  0.00    -0.123 A 
ATOM      2  C   LIG    1        8.010  -3.103   1.975  0.00  0.00    +0.113 A 
ATOM      3  C   LIG    1        9.194  -3.765   2.213  0.00  0.00    +0.055 A 
ATOM      4  C   LIG    1        9.610  -4.003   3.517  0.00  0.00    +0.131 A 
ATOM      5  C   LIG    1        8.831  -3.573   4.592  0.00  0.00    +0.119 A 
ATOM      6  C   LIG    1        7.646  -2.904   4.362  0.00  0.00    +0.003 A 
ENDROOT
BRANCH   6   7
ATOM      7  N   LIG    1        6.821  -2.442   5.501  0.00  0.00    +0.037 N 
ATOM      8  O   LIG    1        6.996  -1.340   5.965  0.00  0.00    -0.133 OA
ATOM      9  O   LIG    1        5.974  -3.167   5.967  0.00  0.00    -0.117 OA
ENDBRANCH   6   7
BRANCH   1  10
ATOM     10  C   LIG    1        5.960  -1.962   2.796  0.00  0.00    +0.383 C 
ATOM     11  O   LIG    1        5.282  -1.582   3.727  0.00  0.00    -0.425 OA
BRANCH  10  12
ATOM     12  C   LIG    1        5.507  -1.710   1.381  0.00  0.00    +0.056 C 
BRANCH  12  13
ATOM     13  C   LIG    1        4.171  -0.963   1.399  0.00  0.00    +0.040 C 
BRANCH  13  14
ATOM     14  C   LIG    1        3.711  -0.707  -0.038  0.00  0.00    +0.070 C 
BRANCH  14  18
ATOM     15  C   LIG    1       -0.017   1.378   0.010  0.00  0.00    -0.002 A 
ATOM     16  C   LIG    1        1.171   2.086   0.002  0.00  0.00    +0.004 A 
ATOM     17  C   LIG    1        2.377   1.411  -0.013  0.00  0.00    +0.004 A 
ATOM     18  C   LIG    1        2.396   0.029  -0.020  0.00  0.00    -0.085 A 
ATOM     19  C   LIG    1        1.208  -0.679  -0.012  0.00  0.00    +0.004 A 
ATOM     20  C   LIG    1        0.002  -0.004   0.002  0.00  0.00    +0.004 A 
ENDBRANCH  14  18
ENDBRANCH  13  14
ENDBRANCH  12  13
ENDBRANCH  10  12
ENDBRANCH   1  10
BRANCH   4  21
ATOM     21  O   LIG    1       10.778  -4.655   3.746  0.00  0.00    -0.472 OA
ATOM     22  H   LIG    1       11.547  -4.073   3.816  0.00  0.00    +0.403 HD
ENDBRANCH   4  21
BRANCH   5  23
ATOM     23  O   LIG    1        9.242  -3.809   5.866  0.00  0.00    -0.473 OA
ATOM     24  H   LIG    1        9.792  -3.105   6.239  0.00  0.00    +0.404 HD
ENDBRANCH   5  23
TORSDOF 8
