REMARK  Name = CHEMBL265218
REMARK                            x       y       z     vdW  Elec       q    Type
REMARK                         _______ _______ _______ _____ _____    ______ ____
ROOT
ATOM      1  C   LIG    1       -1.294  -0.772   0.224  0.00  0.00    +0.136 C 
ATOM      2  C   LIG    1       -1.268  -2.114   0.071  0.00  0.00    -0.186 C 
ATOM      3  C   LIG    1       -2.433  -2.974  -0.118  0.00  0.00    +0.422 C 
ATOM      4  C   LIG    1       -2.009  -4.365  -0.247  0.00  0.00    -0.187 C 
ATOM      5  C   LIG    1       -0.505  -4.420  -0.138  0.00  0.00    +0.100 C 
ATOM      6  C   LIG    1       -2.826  -5.425  -0.433  0.00  0.00    +0.136 C 
ATOM      7  O   LIG    1       -3.588  -2.587  -0.163  0.00  0.00    -0.433 OA
ATOM      8  C   LIG    1       -0.029  -2.975   0.061  0.00  0.00    +0.100 C 
ENDROOT
BRANCH   1  14
ATOM      9  C   LIG    1       -0.061   1.387   0.248  0.00  0.00    +0.139 A 
ATOM     10  C   LIG    1        1.119   2.097   0.285  0.00  0.00    -0.066 A 
ATOM     11  C   LIG    1        2.334   1.428   0.340  0.00  0.00    +0.160 A 
ATOM     12  C   LIG    1        2.367   0.033   0.357  0.00  0.00    +0.086 A 
ATOM     13  C   LIG    1        1.190  -0.686   0.319  0.00  0.00    +0.081 A 
ATOM     14  C   LIG    1       -0.037  -0.012   0.264  0.00  0.00    -0.061 A 
BRANCH  10  15
ATOM     15  N   LIG    1        1.091   3.577   0.267  0.00  0.00    +0.034 N 
ATOM     16  O   LIG    1        2.126   4.201   0.300  0.00  0.00    -0.130 OA
ATOM     17  O   LIG    1        0.034   4.161   0.219  0.00  0.00    -0.159 OA
ENDBRANCH  10  15
BRANCH  11  18
ATOM     18  O   LIG    1        3.494   2.133   0.377  0.00  0.00    -0.460 OA
ATOM     19  H   LIG    1        3.796   2.348   1.270  0.00  0.00    +0.406 HD
ENDBRANCH  11  18
BRANCH  12  20
ATOM     20  O   LIG    1        3.560  -0.618   0.410  0.00  0.00    -0.471 OA
ATOM     21  H   LIG    1        3.871  -0.796   1.309  0.00  0.00    +0.397 HD
ENDBRANCH  12  20
ENDBRANCH   1  14
BRANCH   6  22
ATOM     22  C   LIG    1       -2.277  -6.788  -0.414  0.00  0.00    -0.061 A 
ATOM     23  C   LIG    1       -0.891  -6.987  -0.371  0.00  0.00    +0.082 A 
ATOM     24  C   LIG    1       -0.382  -8.270  -0.352  0.00  0.00    +0.086 A 
ATOM     25  C   LIG    1       -1.247  -9.364  -0.377  0.00  0.00    +0.160 A 
ATOM     26  C   LIG    1       -2.620  -9.168  -0.419  0.00  0.00    -0.066 A 
ATOM     27  C   LIG    1       -3.138  -7.891  -0.432  0.00  0.00    +0.139 A 
BRANCH  26  28
ATOM     28  N   LIG    1       -3.532 -10.334  -0.445  0.00  0.00    +0.034 N 
ATOM     29  O   LIG    1       -3.080 -11.455  -0.429  0.00  0.00    -0.130 OA
ATOM     30  O   LIG    1       -4.729 -10.165  -0.482  0.00  0.00    -0.159 OA
ENDBRANCH  26  28
BRANCH  24  31
ATOM     31  O   LIG    1        0.963  -8.466  -0.311  0.00  0.00    -0.471 OA
ATOM     32  H   LIG    1        1.325  -8.521   0.584  0.00  0.00    +0.397 HD
ENDBRANCH  24  31
BRANCH  25  33
ATOM     33  O   LIG    1       -0.743 -10.625  -0.359  0.00  0.00    -0.460 OA
ATOM     34  H   LIG    1       -0.624 -10.989   0.529  0.00  0.00    +0.406 HD
ENDBRANCH  25  33
ENDBRANCH   6  22
TORSDOF 8
