REMARK  Name = CHEMBL168389
REMARK                            x       y       z     vdW  Elec       q    Type
REMARK                         _______ _______ _______ _____ _____    ______ ____
ROOT
ATOM      1  C   LIG    1       -0.866  -3.799  -2.794  0.00  0.00    -0.239 A 
ATOM      2  C   LIG    1       -0.309  -4.445  -3.907  0.00  0.00    +0.185 A 
ATOM      3  C   LIG    1       -0.492  -5.798  -4.079  0.00  0.00    -0.196 A 
ATOM      4  C   LIG    1       -1.229  -6.527  -3.153  0.00  0.00    +0.308 A 
ATOM      5  O   LIG    1       -1.407  -7.861  -3.330  0.00  0.00    -0.598 OA
ATOM      6  C   LIG    1       -1.787  -5.892  -2.043  0.00  0.00    -0.012 A 
ATOM      7  C   LIG    1       -1.604  -4.537  -1.858  0.00  0.00    +0.081 A 
ENDROOT
BRANCH   3   8
ATOM      8  N   LIG    1        0.096  -6.479  -5.254  0.00  0.00    +0.068 N 
ATOM      9  O   LIG    1       -0.064  -7.667  -5.407  0.00  0.00    -0.153 OA
ATOM     10  O   LIG    1        0.737  -5.846  -6.061  0.00  0.00    -0.245 OA
ENDBRANCH   3   8
BRANCH   1  12
ATOM     11  C   LIG    1       -0.594  -1.834  -1.335  0.00  0.00    -0.203 C 
ATOM     12  C   LIG    1       -0.672  -2.359  -2.607  0.00  0.00    +0.286 C 
BRANCH  11  15
ATOM     13  C   LIG    1       -0.416   1.584   0.297  0.00  0.00    +0.289 C 
ATOM     14  N   LIG    1       -0.325   0.138   0.079  0.00  0.00    -0.622 N 
ATOM     15  C   LIG    1       -0.571  -0.376  -1.142  0.00  0.00    +0.583 C 
ATOM     16  O   LIG    1       -0.775   0.366  -2.084  0.00  0.00    -0.539 OA
ATOM     17  C   LIG    1        0.035  -0.749   1.188  0.00  0.00    +0.280 C 
ENDBRANCH  11  15
BRANCH  11  18
ATOM     18  C   LIG    1       -0.536  -2.708  -0.202  0.00  0.00    +0.276 C 
ATOM     19  N   LIG    1       -0.490  -3.401   0.697  0.00  0.00    -0.443 NA
ENDBRANCH  11  18
ENDBRANCH   1  12
BRANCH   6  20
ATOM     20  O   LIG    1       -2.508  -6.610  -1.141  0.00  0.00    -0.479 OA
ATOM     21  H   LIG    1       -1.980  -6.977  -0.419  0.00  0.00    +0.372 HD
ENDBRANCH   6  20
TORSDOF 5
