REMARK  Name = CHEMBL169926
REMARK                            x       y       z     vdW  Elec       q    Type
REMARK                         _______ _______ _______ _____ _____    ______ ____
ROOT
ATOM      1  C   LIG    1        4.925  -4.228  -0.069  0.00  0.00    -0.068 A 
ATOM      2  C   LIG    1        6.148  -4.911  -0.079  0.00  0.00    +0.142 A 
ATOM      3  C   LIG    1        6.167  -6.287  -0.086  0.00  0.00    -0.067 A 
ATOM      4  C   LIG    1        4.976  -7.002  -0.083  0.00  0.00    +0.164 A 
ATOM      5  C   LIG    1        3.754  -6.330  -0.074  0.00  0.00    +0.086 A 
ATOM      6  C   LIG    1        3.725  -4.950  -0.061  0.00  0.00    +0.094 A 
ENDROOT
BRANCH   3   7
ATOM      7  N   LIG    1        7.460  -7.008  -0.097  0.00  0.00    +0.034 N 
ATOM      8  O   LIG    1        7.479  -8.216  -0.103  0.00  0.00    -0.130 OA
ATOM      9  O   LIG    1        8.498  -6.387  -0.100  0.00  0.00    -0.158 OA
ENDBRANCH   3   7
BRANCH   1  11
ATOM     10  C   LIG    1        3.719  -2.102  -0.045  0.00  0.00    -0.085 C 
ATOM     11  C   LIG    1        4.901  -2.759  -0.061  0.00  0.00    +0.140 C 
BRANCH  10  12
ATOM     12  C   LIG    1        3.696  -0.685  -0.037  0.00  0.00    +0.424 C 
ATOM     13  O   LIG    1        4.741  -0.059  -0.044  0.00  0.00    -0.453 OA
BRANCH  12  17
ATOM     14  C   LIG    1       -0.017   1.380   0.010  0.00  0.00    +0.041 A 
ATOM     15  C   LIG    1        1.169   2.094   0.002  0.00  0.00    +0.000 A 
ATOM     16  C   LIG    1        2.377   1.430  -0.013  0.00  0.00    +0.073 A 
ATOM     17  C   LIG    1        2.404   0.034  -0.021  0.00  0.00    -0.165 A 
ATOM     18  C   LIG    1        1.204  -0.680  -0.013  0.00  0.00    +0.053 A 
ATOM     19  C   LIG    1        0.002  -0.004   0.002  0.00  0.00    -0.002 A 
ENDBRANCH  12  17
ENDBRANCH  10  12
ENDBRANCH   1  11
BRANCH   4  20
ATOM     20  O   LIG    1        5.001  -8.360  -0.090  0.00  0.00    -0.459 OA
ATOM     21  H   LIG    1        5.013  -8.758   0.791  0.00  0.00    +0.406 HD
ENDBRANCH   4  20
BRANCH   5  22
ATOM     22  O   LIG    1        2.591  -7.034  -0.072  0.00  0.00    -0.471 OA
ATOM     23  H   LIG    1        2.258  -7.243   0.812  0.00  0.00    +0.398 HD
ENDBRANCH   5  22
TORSDOF 6
