REMARK  Name = CHEMBL170549
REMARK                            x       y       z     vdW  Elec       q    Type
REMARK                         _______ _______ _______ _____ _____    ______ ____
ROOT
ATOM      1  C   LIG    1       -0.017   1.373   0.010  0.00  0.00    +0.152 A 
ATOM      2  C   LIG    1        1.185   2.088   0.002  0.00  0.00    -0.252 A 
ATOM      3  C   LIG    1        2.404   1.402  -0.013  0.00  0.00    +0.106 A 
ATOM      4  C   LIG    1        2.414   0.021  -0.021  0.00  0.00    -0.065 A 
ATOM      5  C   LIG    1        1.212  -0.686  -0.013  0.00  0.00    +0.299 A 
ATOM      6  O   LIG    1        1.225  -2.043  -0.021  0.00  0.00    -0.656 OA
ATOM      7  C   LIG    1        0.002  -0.004   0.002  0.00  0.00    -0.212 A 
ENDROOT
BRANCH   2   8
ATOM      8  C   LIG    1        1.168   3.561   0.009  0.00  0.00    +0.539 C 
ATOM      9  O   LIG    1        2.220   4.185   0.003  0.00  0.00    -0.708 OA
ATOM     10  O   LIG    1        0.101   4.160   0.022  0.00  0.00    -0.704 OA
ENDBRANCH   2   8
BRANCH   7  11
ATOM     11  N   LIG    1       -1.271  -0.760   0.010  0.00  0.00    +0.081 N 
ATOM     12  O   LIG    1       -1.256  -1.969   0.004  0.00  0.00    -0.183 OA
ATOM     13  O   LIG    1       -2.325  -0.168   0.023  0.00  0.00    -0.270 OA
ENDBRANCH   7  11
BRANCH   4  14
ATOM     14  O   LIG    1        3.597  -0.650  -0.036  0.00  0.00    -0.483 OA
ATOM     15  H   LIG    1        3.948  -0.849   0.843  0.00  0.00    +0.354 HD
ENDBRANCH   4  14
TORSDOF 3
