REMARK  Name = CHEMBL167055
REMARK                            x       y       z     vdW  Elec       q    Type
REMARK                         _______ _______ _______ _____ _____    ______ ____
ROOT
ATOM      1  C   LIG    1       -0.225  -2.944   0.039  0.00  0.00    -0.234 A 
ATOM      2  C   LIG    1       -1.001  -2.416   1.083  0.00  0.00    +0.163 A 
ATOM      3  C   LIG    1       -1.117  -3.097   2.261  0.00  0.00    -0.190 A 
ATOM      4  C   LIG    1       -0.470  -4.316   2.434  0.00  0.00    +0.309 A 
ATOM      5  O   LIG    1       -0.592  -4.985   3.608  0.00  0.00    -0.598 OA
ATOM      6  C   LIG    1        0.304  -4.854   1.404  0.00  0.00    -0.017 A 
ATOM      7  C   LIG    1        0.425  -4.178   0.208  0.00  0.00    +0.095 A 
ENDROOT
BRANCH   3   8
ATOM      8  N   LIG    1       -1.936  -2.535   3.359  0.00  0.00    +0.068 N 
ATOM      9  O   LIG    1       -2.041  -3.136   4.402  0.00  0.00    -0.151 OA
ATOM     10  O   LIG    1       -2.499  -1.476   3.211  0.00  0.00    -0.246 OA
ENDBRANCH   3   8
BRANCH   1  12
ATOM     11  C   LIG    1       -0.083  -0.851  -1.186  0.00  0.00    -0.352 C 
ATOM     12  C   LIG    1       -0.104  -2.238  -1.185  0.00  0.00    +0.244 C 
BRANCH  11  14
ATOM     13  C   LIG    1       -1.192   0.743   0.502  0.00  0.00    +0.064 C 
ATOM     14  C   LIG    1       -0.029  -0.118   0.080  0.00  0.00    +0.409 C 
ATOM     15  O   LIG    1        0.951  -0.205   0.790  0.00  0.00    -0.447 OA
ENDBRANCH  11  14
BRANCH  11  16
ATOM     16  C   LIG    1       -0.115  -0.119  -2.454  0.00  0.00    +0.410 C 
ATOM     17  C   LIG    1       -0.190   1.386  -2.453  0.00  0.00    +0.060 C 
ATOM     18  O   LIG    1       -0.080  -0.725  -3.505  0.00  0.00    -0.481 OA
ENDBRANCH  11  16
ENDBRANCH   1  12
BRANCH   6  19
ATOM     19  O   LIG    1        0.935  -6.046   1.579  0.00  0.00    -0.478 OA
ATOM     20  H   LIG    1        0.408  -6.812   1.315  0.00  0.00    +0.371 HD
ENDBRANCH   6  19
TORSDOF 5
