REMARK  Name = CHEMBL167054
REMARK                            x       y       z     vdW  Elec       q    Type
REMARK                         _______ _______ _______ _____ _____    ______ ____
ROOT
ATOM      1  C   LIG    1        0.114   0.081   2.419  0.00  0.00    -0.215 A 
ATOM      2  C   LIG    1        0.352  -0.608   3.615  0.00  0.00    +0.158 A 
ATOM      3  C   LIG    1        0.356   0.074   4.812  0.00  0.00    -0.199 A 
ATOM      4  C   LIG    1        0.124   1.443   4.836  0.00  0.00    +0.303 A 
ATOM      5  O   LIG    1        0.129   2.110   6.019  0.00  0.00    -0.611 OA
ATOM      6  C   LIG    1       -0.114   2.136   3.649  0.00  0.00    -0.024 A 
ATOM      7  C   LIG    1       -0.114   1.463   2.444  0.00  0.00    +0.086 A 
ENDROOT
BRANCH   1  10
ATOM      8  C   LIG    1       -1.858   0.706   0.462  0.00  0.00    +0.090 C 
ATOM      9  C   LIG    1       -0.774  -0.300   0.172  0.00  0.00    -0.268 C 
ATOM     10  C   LIG    1        0.109  -0.643   1.142  0.00  0.00    +0.177 C 
BRANCH   9  11
ATOM     11  C   LIG    1       -0.678  -0.884  -1.105  0.00  0.00    +0.393 C 
ATOM     12  C   LIG    1       -1.660  -0.503  -2.183  0.00  0.00    +0.050 C 
ATOM     13  O   LIG    1        0.196  -1.694  -1.339  0.00  0.00    -0.490 OA
ENDBRANCH   9  11
ENDBRANCH   1  10
BRANCH   3  14
ATOM     14  N   LIG    1        0.607  -0.655   6.075  0.00  0.00    +0.070 N 
ATOM     15  O   LIG    1        0.611  -0.058   7.127  0.00  0.00    -0.157 OA
ATOM     16  O   LIG    1        0.808  -1.847   6.056  0.00  0.00    -0.252 OA
ENDBRANCH   3  14
BRANCH   6  17
ATOM     17  O   LIG    1       -0.341   3.477   3.679  0.00  0.00    -0.480 OA
ATOM     18  H   LIG    1        0.460   4.013   3.600  0.00  0.00    +0.369 HD
ENDBRANCH   6  17
TORSDOF 4
