REMARK  Name = CHEMBL1091982
REMARK                            x       y       z     vdW  Elec       q    Type
REMARK                         _______ _______ _______ _____ _____    ______ ____
ROOT
ATOM      1  C   LIG    1        4.869   1.103  -5.150  0.00  0.00    -0.270 A 
ATOM      2  C   LIG    1        4.759   1.496  -6.450  0.00  0.00    +0.102 A 
ATOM      3 CL   LIG    1        3.705   2.807  -6.877  0.00  0.00    -0.033 Cl
ATOM      4  C   LIG    1        5.501   0.835  -7.446  0.00  0.00    -0.216 A 
ATOM      5  C   LIG    1        5.520   1.095  -8.842  0.00  0.00    +0.109 A 
ATOM      6  C   LIG    1        6.299   0.358  -9.678  0.00  0.00    +0.019 A 
ATOM      7  C   LIG    1        7.107  -0.678  -9.197  0.00  0.00    +0.331 A 
ATOM      8  O   LIG    1        7.876  -1.401 -10.053  0.00  0.00    -0.620 OA
ATOM      9  C   LIG    1        7.114  -0.961  -7.843  0.00  0.00    -0.164 A 
ATOM     10  C   LIG    1        6.327  -0.219  -6.989  0.00  0.00    +0.013 A 
ATOM     11  S   LIG    1        6.046  -0.235  -5.236  0.00  0.00    +0.115 S 
ENDROOT
BRANCH   9  12
ATOM     12  N   LIG    1        7.961  -2.054  -7.314  0.00  0.00    +0.061 N 
ATOM     13  O   LIG    1        7.520  -3.177  -7.235  0.00  0.00    -0.159 OA
ATOM     14  O   LIG    1        9.094  -1.824  -6.961  0.00  0.00    -0.161 OA
ENDBRANCH   9  12
BRANCH   1  15
ATOM     15  C   LIG    1        4.193   1.651  -3.971  0.00  0.00    +0.559 C 
ATOM     16  O   LIG    1        3.412   2.575  -4.092  0.00  0.00    -0.477 OA
BRANCH  15  17
ATOM     17  O   LIG    1        4.437   1.129  -2.751  0.00  0.00    -0.349 OA
BRANCH  17  18
ATOM     18  C   LIG    1        3.743   1.711  -1.646  0.00  0.00    +0.475 C 
BRANCH  18  19
ATOM     19  O   LIG    1        2.380   1.283  -1.661  0.00  0.00    -0.351 OA
BRANCH  19  20
ATOM     20  C   LIG    1        2.132   0.024  -1.268  0.00  0.00    +0.429 C 
ATOM     21  O   LIG    1        3.042  -0.691  -0.922  0.00  0.00    -0.496 OA
BRANCH  20  22
ATOM     22  C   LIG    1        0.718  -0.497  -1.257  0.00  0.00    +0.223 C 
BRANCH  22  24
ATOM     23  C   LIG    1       -0.019   1.526   0.010  0.00  0.00    +0.031 C 
ATOM     24  C   LIG    1        0.002  -0.004   0.002  0.00  0.00    -0.008 C 
ATOM     25  C   LIG    1       -1.433  -0.534   0.013  0.00  0.00    +0.045 C 
ENDBRANCH  22  24
BRANCH  22  26
ATOM     26  N   LIG    1        0.738  -1.966  -1.265  0.00  0.00    -0.811 NA
ATOM     27  H   LIG    1        1.222  -2.326  -0.456  0.00  0.00    +0.352 HD
ATOM     28  H   LIG    1        1.149  -2.318  -2.117  0.00  0.00    +0.352 HD
ENDBRANCH  22  26
ENDBRANCH  20  22
ENDBRANCH  19  20
ENDBRANCH  18  19
ENDBRANCH  17  18
ENDBRANCH  15  17
ENDBRANCH   1  15
BRANCH   6  29
ATOM     29  O   LIG    1        6.293   0.634 -11.010  0.00  0.00    -0.478 OA
ATOM     30  H   LIG    1        6.955   1.285 -11.280  0.00  0.00    +0.379 HD
ENDBRANCH   6  29
TORSDOF 10
