REMARK  Name = CHEMBL168276
REMARK                            x       y       z     vdW  Elec       q    Type
REMARK                         _______ _______ _______ _____ _____    ______ ____
ROOT
ATOM      1  C   LIG    1       -0.017   1.378   0.010  0.00  0.00    +0.219 A 
ATOM      2  C   LIG    1        1.169   2.089   0.002  0.00  0.00    -0.160 A 
ATOM      3  C   LIG    1        2.379   1.420  -0.013  0.00  0.00    +0.115 A 
ATOM      4  C   LIG    1        2.405   0.035  -0.021  0.00  0.00    +0.004 A 
ATOM      5  C   LIG    1        1.211  -0.680  -0.013  0.00  0.00    +0.310 A 
ATOM      6  O   LIG    1        1.232  -2.040  -0.021  0.00  0.00    -0.583 OA
ATOM      7  C   LIG    1        0.002  -0.004   0.002  0.00  0.00    -0.186 A 
ENDROOT
BRANCH   2   8
ATOM      8  N   LIG    1        1.143   3.569   0.010  0.00  0.00    +0.068 N 
ATOM      9  O   LIG    1        2.180   4.191   0.004  0.00  0.00    -0.194 OA
ATOM     10  O   LIG    1        0.086   4.155   0.024  0.00  0.00    -0.196 OA
ENDBRANCH   2   8
BRANCH   7  11
ATOM     11  N   LIG    1       -1.270  -0.762   0.011  0.00  0.00    +0.067 N 
ATOM     12  O   LIG    1       -1.253  -1.970   0.004  0.00  0.00    -0.140 OA
ATOM     13  O   LIG    1       -2.325  -0.171   0.024  0.00  0.00    -0.231 OA
ENDBRANCH   7  11
BRANCH   4  14
ATOM     14  O   LIG    1        3.594  -0.625  -0.037  0.00  0.00    -0.471 OA
ATOM     15  H   LIG    1        3.947  -0.820   0.842  0.00  0.00    +0.378 HD
ENDBRANCH   4  14
TORSDOF 3
