REMARK  Name = CHEMBL1089630
REMARK                            x       y       z     vdW  Elec       q    Type
REMARK                         _______ _______ _______ _____ _____    ______ ____
ROOT
ATOM      1  C   LIG    1       -4.258  -4.476   0.019  0.00  0.00    -0.173 A 
ATOM      2  C   LIG    1       -4.617  -5.790   0.021  0.00  0.00    +0.026 A 
ATOM      3 CL   LIG    1       -3.398  -7.026   0.010  0.00  0.00    +0.004 Cl
ATOM      4  C   LIG    1       -5.979  -6.144   0.031  0.00  0.00    -0.083 A 
ATOM      5  C   LIG    1       -6.546  -7.446   0.034  0.00  0.00    +0.135 A 
ATOM      6  C   LIG    1       -7.894  -7.619   0.043  0.00  0.00    +0.096 A 
ATOM      7  C   LIG    1       -8.770  -6.527   0.050  0.00  0.00    +0.191 A 
ATOM      8  C   LIG    1       -8.253  -5.243   0.048  0.00  0.00    -0.013 A 
ATOM      9  C   LIG    1       -6.887  -5.059   0.038  0.00  0.00    -0.091 A 
ATOM     10  S   LIG    1       -5.830  -3.633   0.039  0.00  0.00    +0.214 S 
ENDROOT
BRANCH   8  11
ATOM     11  N   LIG    1       -9.162  -4.074   0.055  0.00  0.00    +0.023 N 
ATOM     12  O   LIG    1       -9.540  -3.596  -0.990  0.00  0.00    -0.110 OA
ATOM     13  O   LIG    1       -9.526  -3.598   1.104  0.00  0.00    -0.125 OA
ENDBRANCH   8  11
BRANCH   1  14
ATOM     14  C   LIG    1       -2.912  -3.898   0.009  0.00  0.00    +0.548 C 
ATOM     15  O   LIG    1       -1.937  -4.625  -0.004  0.00  0.00    -0.460 OA
BRANCH  14  16
ATOM     16  O   LIG    1       -2.753  -2.558   0.015  0.00  0.00    -0.341 OA
BRANCH  16  17
ATOM     17  C   LIG    1       -1.413  -2.063   0.004  0.00  0.00    +0.216 C 
BRANCH  17  18
ATOM     18  C   LIG    1       -1.433  -0.534   0.013  0.00  0.00    +0.033 C 
BRANCH  18  20
ATOM     19  C   LIG    1       -0.019   1.526   0.010  0.00  0.00    +0.020 C 
ATOM     20  C   LIG    1        0.002  -0.004   0.002  0.00  0.00    +0.012 C 
ENDBRANCH  18  20
ENDBRANCH  17  18
ENDBRANCH  16  17
ENDBRANCH  14  16
ENDBRANCH   1  14
BRANCH   6  21
ATOM     21  O   LIG    1       -8.404  -8.880   0.045  0.00  0.00    -0.469 OA
ATOM     22  H   LIG    1       -8.545  -9.246   0.929  0.00  0.00    +0.401 HD
ENDBRANCH   6  21
BRANCH   7  23
ATOM     23  O   LIG    1      -10.114  -6.726   0.059  0.00  0.00    -0.467 OA
ATOM     24  H   LIG    1      -10.497  -6.784   0.945  0.00  0.00    +0.412 HD
ENDBRANCH   7  23
TORSDOF 8
