REMARK  Name = CHEMBL1089539
REMARK                            x       y       z     vdW  Elec       q    Type
REMARK                         _______ _______ _______ _____ _____    ______ ____
ROOT
ATOM      1  C   LIG    1       -2.690  -5.047   3.618  0.00  0.00    -0.179 A 
ATOM      2  C   LIG    1       -3.495  -5.106   4.716  0.00  0.00    +0.030 A 
ATOM      3 CL   LIG    1       -5.151  -4.596   4.607  0.00  0.00    +0.005 Cl
ATOM      4  C   LIG    1       -2.983  -5.580   5.936  0.00  0.00    -0.085 A 
ATOM      5  C   LIG    1       -3.660  -5.714   7.178  0.00  0.00    +0.136 A 
ATOM      6  C   LIG    1       -3.015  -6.193   8.275  0.00  0.00    +0.095 A 
ATOM      7  C   LIG    1       -1.669  -6.570   8.223  0.00  0.00    +0.193 A 
ATOM      8  C   LIG    1       -0.977  -6.453   7.030  0.00  0.00    -0.013 A 
ATOM      9  C   LIG    1       -1.623  -5.969   5.914  0.00  0.00    -0.090 A 
ATOM     10  S   LIG    1       -1.135  -5.671   4.233  0.00  0.00    +0.219 S 
ENDROOT
BRANCH   8  11
ATOM     11  N   LIG    1        0.449  -6.846   6.954  0.00  0.00    +0.022 N 
ATOM     12  O   LIG    1        1.313  -6.032   7.182  0.00  0.00    -0.109 OA
ATOM     13  O   LIG    1        0.748  -7.981   6.664  0.00  0.00    -0.124 OA
ENDBRANCH   8  11
BRANCH   1  14
ATOM     14  C   LIG    1       -3.020  -4.591   2.266  0.00  0.00    +0.549 C 
ATOM     15  O   LIG    1       -4.141  -4.193   2.016  0.00  0.00    -0.447 OA
BRANCH  14  16
ATOM     16  O   LIG    1       -2.080  -4.612   1.299  0.00  0.00    -0.346 OA
BRANCH  16  17
ATOM     17  C   LIG    1       -2.472  -4.153   0.003  0.00  0.00    +0.494 C 
BRANCH  17  18
ATOM     18  O   LIG    1       -2.566  -2.727   0.012  0.00  0.00    -0.356 OA
BRANCH  18  19
ATOM     19  C   LIG    1       -1.413  -2.041   0.005  0.00  0.00    +0.458 C 
ATOM     20  O   LIG    1       -0.358  -2.630  -0.009  0.00  0.00    -0.489 OA
BRANCH  19  21
ATOM     21  C   LIG    1       -1.433  -0.534   0.013  0.00  0.00    +0.102 C 
BRANCH  21  23
ATOM     22  C   LIG    1       -0.019   1.526   0.010  0.00  0.00    +0.025 C 
ATOM     23  C   LIG    1        0.002  -0.004   0.002  0.00  0.00    +0.030 C 
ENDBRANCH  21  23
ENDBRANCH  19  21
ENDBRANCH  18  19
ENDBRANCH  17  18
ENDBRANCH  16  17
ENDBRANCH  14  16
ENDBRANCH   1  14
BRANCH   6  24
ATOM     24  O   LIG    1       -3.693  -6.308   9.449  0.00  0.00    -0.468 OA
ATOM     25  H   LIG    1       -4.128  -7.163   9.569  0.00  0.00    +0.401 HD
ENDBRANCH   6  24
BRANCH   7  26
ATOM     26  O   LIG    1       -1.046  -7.045   9.334  0.00  0.00    -0.467 OA
ATOM     27  H   LIG    1       -1.105  -8.005   9.437  0.00  0.00    +0.412 HD
ENDBRANCH   7  26
TORSDOF 10
