REMARK  Name = CHEMBL1089503
REMARK                            x       y       z     vdW  Elec       q    Type
REMARK                         _______ _______ _______ _____ _____    ______ ____
ROOT
ATOM      1  C   LIG    1       -0.016   1.355   0.009  0.00  0.00    +0.102 A 
ATOM      2  C   LIG    1        1.194   2.099   0.002  0.00  0.00    -0.044 A 
ATOM      3  C   LIG    1        2.395   1.351  -0.014  0.00  0.00    -0.130 A 
ATOM      4  S   LIG    1        3.660   2.597  -0.020  0.00  0.00    +0.150 S 
ATOM      5  C   LIG    1        2.606   4.037  -0.002  0.00  0.00    -0.096 A 
ATOM      6  C   LIG    1        2.405  -0.027  -0.021  0.00  0.00    +0.004 A 
ATOM      7  C   LIG    1        1.206  -0.718  -0.013  0.00  0.00    +0.149 A 
ATOM      8  C   LIG    1        1.353   3.496   0.007  0.00  0.00    -0.077 A 
ATOM      9 CL   LIG    1       -0.041   4.530   0.026  0.00  0.00    -0.024 Cl
ATOM     10  C   LIG    1        0.002  -0.004   0.002  0.00  0.00    +0.089 A 
ENDROOT
BRANCH   5  11
ATOM     11  C   LIG    1        2.990   5.447   0.002  0.00  0.00    +0.549 C 
ATOM     12  O   LIG    1        2.127   6.316   0.015  0.00  0.00    -0.628 OA
ATOM     13  O   LIG    1        4.174   5.760  -0.008  0.00  0.00    -0.659 OA
ENDBRANCH   5  11
BRANCH   6  14
ATOM     14  N   LIG    1        3.689  -0.763  -0.037  0.00  0.00    +0.030 N 
ATOM     15  O   LIG    1        4.203  -1.058  -1.091  0.00  0.00    -0.123 OA
ATOM     16  O   LIG    1        4.224  -1.069   1.003  0.00  0.00    -0.137 OA
ENDBRANCH   6  14
BRANCH   7  17
ATOM     17  O   LIG    1        1.197  -2.077  -0.020  0.00  0.00    -0.477 OA
ATOM     18  H   LIG    1        1.203  -2.475   0.861  0.00  0.00    +0.405 HD
ENDBRANCH   7  17
BRANCH  10  19
ATOM     19  O   LIG    1       -1.175  -0.685   0.010  0.00  0.00    -0.480 OA
ATOM     20  H   LIG    1       -1.525  -0.878  -0.871  0.00  0.00    +0.397 HD
ENDBRANCH  10  19
TORSDOF 4
