REMARK  Name = CHEMBL953
REMARK                            x       y       z     vdW  Elec       q    Type
REMARK                         _______ _______ _______ _____ _____    ______ ____
ROOT
ATOM      1  C   LIG    1       -0.447  -2.240  -5.422  0.00  0.00    -0.238 A 
ATOM      2  C   LIG    1       -1.099  -1.839  -6.598  0.00  0.00    +0.185 A 
ATOM      3  C   LIG    1       -0.751  -2.403  -7.803  0.00  0.00    -0.196 A 
ATOM      4  C   LIG    1        0.245  -3.371  -7.861  0.00  0.00    +0.308 A 
ATOM      5  O   LIG    1        0.583  -3.924  -9.053  0.00  0.00    -0.599 OA
ATOM      6  C   LIG    1        0.898  -3.776  -6.696  0.00  0.00    -0.011 A 
ATOM      7  C   LIG    1        0.561  -3.212  -5.483  0.00  0.00    +0.081 A 
ENDROOT
BRANCH   3   8
ATOM      8  N   LIG    1       -1.439  -1.979  -9.043  0.00  0.00    +0.068 N 
ATOM      9  O   LIG    1       -1.135  -2.474 -10.103  0.00  0.00    -0.153 OA
ATOM     10  O   LIG    1       -2.306  -1.137  -8.995  0.00  0.00    -0.245 OA
ENDBRANCH   3   8
BRANCH   1  12
ATOM     11  C   LIG    1        0.134  -1.497  -3.148  0.00  0.00    -0.204 C 
ATOM     12  C   LIG    1       -0.815  -1.641  -4.138  0.00  0.00    +0.284 C 
BRANCH  11  14
ATOM     13  N   LIG    1        0.673  -0.786  -0.875  0.00  0.00    -0.613 N 
ATOM     14  C   LIG    1       -0.266  -1.050  -1.805  0.00  0.00    +0.584 C 
ATOM     15  O   LIG    1       -1.445  -0.917  -1.534  0.00  0.00    -0.539 OA
BRANCH  13  17
ATOM     16  C   LIG    1        0.087   1.054   0.626  0.00  0.00    +0.012 C 
ATOM     17  C   LIG    1        0.274  -0.459   0.496  0.00  0.00    +0.272 C 
ENDBRANCH  13  17
BRANCH  13  18
ATOM     18  C   LIG    1        2.092  -0.826  -1.236  0.00  0.00    +0.260 C 
ATOM     19  C   LIG    1        2.615  -2.256  -1.089  0.00  0.00    +0.015 C 
ENDBRANCH  13  18
ENDBRANCH  11  14
BRANCH  11  20
ATOM     20  C   LIG    1        1.509  -1.783  -3.428  0.00  0.00    +0.276 C 
ATOM     21  N   LIG    1        2.600  -2.010  -3.649  0.00  0.00    -0.440 NA
ENDBRANCH  11  20
ENDBRANCH   1  12
BRANCH   6  22
ATOM     22  O   LIG    1        1.871  -4.724  -6.758  0.00  0.00    -0.479 OA
ATOM     23  H   LIG    1        2.759  -4.368  -6.897  0.00  0.00    +0.372 HD
ENDBRANCH   6  22
TORSDOF 7
