REMARK  Name = CHEMBL1089538
REMARK                            x       y       z     vdW  Elec       q    Type
REMARK                         _______ _______ _______ _____ _____    ______ ____
ROOT
ATOM      1  C   LIG    1       -4.908  -0.220   2.317  0.00  0.00    -0.267 A 
ATOM      2  C   LIG    1       -5.403   1.026   2.563  0.00  0.00    +0.099 A 
ATOM      3 CL   LIG    1       -5.067   2.327   1.464  0.00  0.00    -0.034 Cl
ATOM      4  C   LIG    1       -6.186   1.255   3.708  0.00  0.00    -0.216 A 
ATOM      5  C   LIG    1       -6.785   2.472   4.131  0.00  0.00    +0.109 A 
ATOM      6  C   LIG    1       -7.518   2.526   5.275  0.00  0.00    +0.018 A 
ATOM      7  C   LIG    1       -7.711   1.394   6.073  0.00  0.00    +0.331 A 
ATOM      8  O   LIG    1       -8.448   1.474   7.212  0.00  0.00    -0.621 OA
ATOM      9  C   LIG    1       -7.143   0.190   5.692  0.00  0.00    -0.165 A 
ATOM     10  C   LIG    1       -6.398   0.126   4.535  0.00  0.00    +0.011 A 
ATOM     11  S   LIG    1       -5.525  -1.172   3.695  0.00  0.00    +0.119 S 
ENDROOT
BRANCH   9  12
ATOM     12  N   LIG    1       -7.335  -1.020   6.523  0.00  0.00    +0.062 N 
ATOM     13  O   LIG    1       -6.549  -1.278   7.405  0.00  0.00    -0.160 OA
ATOM     14  O   LIG    1       -8.277  -1.750   6.319  0.00  0.00    -0.161 OA
ENDBRANCH   9  12
BRANCH   1  15
ATOM     15  C   LIG    1       -4.080  -0.669   1.195  0.00  0.00    +0.559 C 
ATOM     16  O   LIG    1       -3.746   0.120   0.332  0.00  0.00    -0.479 OA
BRANCH  15  17
ATOM     17  O   LIG    1       -3.688  -1.957   1.119  0.00  0.00    -0.344 OA
BRANCH  17  18
ATOM     18  C   LIG    1       -2.977  -2.351  -0.056  0.00  0.00    +0.392 C 
ATOM     19  C   LIG    1       -2.867  -3.876  -0.098  0.00  0.00    +0.082 C 
BRANCH  18  20
ATOM     20  O   LIG    1       -1.668  -1.779  -0.035  0.00  0.00    -0.352 OA
BRANCH  20  21
ATOM     21  C   LIG    1       -0.852  -2.160   0.961  0.00  0.00    +0.460 C 
ATOM     22  O   LIG    1       -1.268  -2.874   1.842  0.00  0.00    -0.482 OA
BRANCH  21  24
ATOM     23  C   LIG    1        1.286  -2.269   2.211  0.00  0.00    +0.062 C 
ATOM     24  C   LIG    1        0.582  -1.697   0.979  0.00  0.00    +0.020 C 
ATOM     25  C   LIG    1        1.291  -2.184  -0.286  0.00  0.00    +0.057 C 
ENDBRANCH  21  24
ENDBRANCH  20  21
ENDBRANCH  18  20
ENDBRANCH  17  18
ENDBRANCH  15  17
ENDBRANCH   1  15
BRANCH   6  26
ATOM     26  O   LIG    1       -8.077   3.708   5.651  0.00  0.00    -0.478 OA
ATOM     27  H   LIG    1       -8.967   3.852   5.302  0.00  0.00    +0.378 HD
ENDBRANCH   6  26
TORSDOF 8
