REMARK  Name = CHEMBL353188
REMARK                            x       y       z     vdW  Elec       q    Type
REMARK                         _______ _______ _______ _____ _____    ______ ____
ROOT
ATOM      1  C   LIG    1       -0.017   1.378   0.010  0.00  0.00    +0.112 A 
ATOM      2  C   LIG    1        1.169   2.089   0.002  0.00  0.00    -0.059 A 
ATOM      3  C   LIG    1        2.379   1.420  -0.013  0.00  0.00    +0.077 A 
ATOM      4  C   LIG    1        2.405   0.035  -0.021  0.00  0.00    +0.085 A 
ATOM      5  C   LIG    1        1.211  -0.680  -0.013  0.00  0.00    +0.138 A 
ATOM      6  C   LIG    1        0.002  -0.004   0.002  0.00  0.00    -0.063 A 
ENDROOT
BRANCH   6   7
ATOM      7  N   LIG    1       -1.270  -0.761   0.011  0.00  0.00    +0.038 N 
ATOM      8  O   LIG    1       -1.253  -1.970   0.004  0.00  0.00    -0.142 OA
ATOM      9  O   LIG    1       -2.325  -0.171   0.024  0.00  0.00    -0.164 OA
ENDBRANCH   6   7
BRANCH   4  10
ATOM     10  O   LIG    1        3.594  -0.625  -0.037  0.00  0.00    -0.475 OA
ATOM     11  H   LIG    1        3.947  -0.820   0.842  0.00  0.00    +0.395 HD
ENDBRANCH   4  10
BRANCH   5  12
ATOM     12  O   LIG    1        1.232  -2.040  -0.021  0.00  0.00    -0.464 OA
ATOM     13  H   LIG    1        1.246  -2.438   0.860  0.00  0.00    +0.399 HD
ENDBRANCH   5  12
BRANCH   2  14
ATOM     14  C   LIG    1        1.143   3.595   0.011  0.00  0.00    +0.085 C 
BRANCH  14  15
ATOM     15  C   LIG    1        1.148   4.098   1.456  0.00  0.00    +0.003 C 
BRANCH  15  16
ATOM     16  C   LIG    1        1.121   5.627   1.464  0.00  0.00    +0.029 C 
BRANCH  16  17
ATOM     17  C   LIG    1        1.126   6.130   2.909  0.00  0.00    -0.074 C 
BRANCH  17  18
ATOM     18  C   LIG    1        1.100   7.636   2.918  0.00  0.00    +0.487 C 
ATOM     19  O   LIG    1        1.099   8.240   3.977  0.00  0.00    -0.708 OA
ATOM     20  O   LIG    1        1.079   8.252   1.865  0.00  0.00    -0.699 OA
ENDBRANCH  17  18
ENDBRANCH  16  17
ENDBRANCH  15  16
ENDBRANCH  14  15
ENDBRANCH   2  14
TORSDOF 8
