REMARK  Name = CHEMBL1244
REMARK                            x       y       z     vdW  Elec       q    Type
REMARK                         _______ _______ _______ _____ _____    ______ ____
ROOT
ATOM      1  C   LIG    1       -0.017   1.373   0.010  0.00  0.00    +0.171 A 
ATOM      2  C   LIG    1        1.187   2.088   0.002  0.00  0.00    -0.183 A 
ATOM      3  C   LIG    1        2.406   1.400  -0.013  0.00  0.00    +0.138 A 
ATOM      4  C   LIG    1        2.415   0.020  -0.021  0.00  0.00    +0.073 A 
ATOM      5  C   LIG    1        1.212  -0.686  -0.013  0.00  0.00    +0.183 A 
ATOM      6  C   LIG    1        0.002  -0.004   0.002  0.00  0.00    -0.080 A 
ENDROOT
BRANCH   6   7
ATOM      7  N   LIG    1       -1.271  -0.760   0.010  0.00  0.00    +0.035 N 
ATOM      8  O   LIG    1       -1.256  -1.968   0.004  0.00  0.00    -0.130 OA
ATOM      9  O   LIG    1       -2.325  -0.168   0.023  0.00  0.00    -0.157 OA
ENDBRANCH   6   7
BRANCH   2  10
ATOM     10  C   LIG    1        1.170   3.557   0.009  0.00  0.00    +0.512 C 
ATOM     11  O   LIG    1        2.213   4.176   0.003  0.00  0.00    -0.442 OA
ENDBRANCH   2  10
BRANCH   4  12
ATOM     12  O   LIG    1        3.598  -0.652  -0.036  0.00  0.00    -0.470 OA
ATOM     13  H   LIG    1        3.948  -0.851   0.843  0.00  0.00    +0.399 HD
ENDBRANCH   4  12
BRANCH   5  14
ATOM     14  O   LIG    1        1.224  -2.043  -0.021  0.00  0.00    -0.459 OA
ATOM     15  H   LIG    1        1.236  -2.441   0.861  0.00  0.00    +0.409 HD
ENDBRANCH   5  14
TORSDOF 4
