REMARK  Name = CHEMBL953
REMARK                            x       y       z     vdW  Elec       q    Type
REMARK                         _______ _______ _______ _____ _____    ______ ____
ROOT
ATOM      1  C   LIG    1       -4.414  -2.341   3.111  0.00  0.00    -0.089 A 
ATOM      2  C   LIG    1       -5.116  -1.953   4.261  0.00  0.00    +0.159 A 
ATOM      3  C   LIG    1       -6.320  -2.547   4.565  0.00  0.00    -0.068 A 
ATOM      4  C   LIG    1       -6.842  -3.531   3.734  0.00  0.00    +0.174 A 
ATOM      5  C   LIG    1       -6.151  -3.923   2.588  0.00  0.00    +0.090 A 
ATOM      6  C   LIG    1       -4.946  -3.330   2.271  0.00  0.00    +0.094 A 
ENDROOT
BRANCH   3   7
ATOM      7  N   LIG    1       -7.059  -2.137   5.779  0.00  0.00    +0.034 N 
ATOM      8  O   LIG    1       -8.117  -2.657   6.048  0.00  0.00    -0.128 OA
ATOM      9  O   LIG    1       -6.606  -1.281   6.503  0.00  0.00    -0.154 OA
ENDBRANCH   3   7
BRANCH   1  11
ATOM     10  C   LIG    1       -2.754  -1.562   1.468  0.00  0.00    -0.114 C 
ATOM     11  C   LIG    1       -3.133  -1.711   2.785  0.00  0.00    +0.242 C 
BRANCH  10  13
ATOM     12  N   LIG    1       -1.073  -0.814  -0.138  0.00  0.00    -0.604 N 
ATOM     13  C   LIG    1       -1.402  -1.081   1.142  0.00  0.00    +0.572 C 
ATOM     14  O   LIG    1       -0.582  -0.925   2.026  0.00  0.00    -0.518 OA
BRANCH  12  16
ATOM     15  C   LIG    1        0.473   1.065  -0.387  0.00  0.00    +0.019 C 
ATOM     16  C   LIG    1        0.305  -0.453  -0.479  0.00  0.00    +0.280 C 
ENDBRANCH  12  16
BRANCH  12  17
ATOM     17  C   LIG    1       -2.093  -0.883  -1.187  0.00  0.00    +0.261 C 
ATOM     18  C   LIG    1       -2.192  -2.318  -1.708  0.00  0.00    +0.019 C 
ENDBRANCH  12  17
ENDBRANCH  10  13
BRANCH  10  19
ATOM     19  C   LIG    1       -3.676  -1.874   0.418  0.00  0.00    +0.250 C 
ATOM     20  N   LIG    1       -4.407  -2.123  -0.415  0.00  0.00    -0.399 NA
ENDBRANCH  10  19
ENDBRANCH   1  11
BRANCH   4  21
ATOM     21  O   LIG    1       -8.030  -4.113   4.040  0.00  0.00    -0.458 OA
ATOM     22  H   LIG    1       -8.798  -3.662   3.662  0.00  0.00    +0.408 HD
ENDBRANCH   4  21
BRANCH   5  23
ATOM     23  O   LIG    1       -6.666  -4.887   1.779  0.00  0.00    -0.469 OA
ATOM     24  H   LIG    1       -7.239  -4.548   1.078  0.00  0.00    +0.400 HD
ENDBRANCH   5  23
TORSDOF 8
