REMARK  Name = CHEMBL8476
REMARK                            x       y       z     vdW  Elec       q    Type
REMARK                         _______ _______ _______ _____ _____    ______ ____
ROOT
ATOM      1  C   LIG    1        7.223  -2.669   3.048  0.00  0.00    -0.089 A 
ATOM      2  C   LIG    1        8.010  -3.103   1.975  0.00  0.00    -0.047 A 
ATOM      3  C   LIG    1        9.194  -3.765   2.213  0.00  0.00    +0.033 A 
ATOM      4  C   LIG    1        9.610  -4.003   3.517  0.00  0.00    +0.011 A 
ATOM      5  C   LIG    1        8.831  -3.573   4.592  0.00  0.00    +0.273 A 
ATOM      6  O   LIG    1        9.242  -3.809   5.866  0.00  0.00    -0.674 OA
ATOM      7  C   LIG    1        7.646  -2.904   4.362  0.00  0.00    -0.138 A 
ENDROOT
BRANCH   7   8
ATOM      8  N   LIG    1        6.821  -2.442   5.501  0.00  0.00    +0.078 N 
ATOM      9  O   LIG    1        6.996  -1.340   5.965  0.00  0.00    -0.173 OA
ATOM     10  O   LIG    1        5.974  -3.167   5.967  0.00  0.00    -0.172 OA
ENDBRANCH   7   8
BRANCH   1  11
ATOM     11  C   LIG    1        5.960  -1.962   2.796  0.00  0.00    +0.384 C 
ATOM     12  O   LIG    1        5.282  -1.582   3.727  0.00  0.00    -0.446 OA
BRANCH  11  13
ATOM     13  C   LIG    1        5.507  -1.710   1.381  0.00  0.00    +0.044 C 
BRANCH  13  14
ATOM     14  C   LIG    1        4.171  -0.963   1.399  0.00  0.00    +0.035 C 
BRANCH  14  15
ATOM     15  C   LIG    1        3.711  -0.707  -0.038  0.00  0.00    +0.066 C 
BRANCH  15  19
ATOM     16  C   LIG    1       -0.017   1.378   0.010  0.00  0.00    -0.010 A 
ATOM     17  C   LIG    1        1.171   2.086   0.002  0.00  0.00    +0.001 A 
ATOM     18  C   LIG    1        2.377   1.411  -0.013  0.00  0.00    +0.004 A 
ATOM     19  C   LIG    1        2.396   0.029  -0.020  0.00  0.00    -0.077 A 
ATOM     20  C   LIG    1        1.208  -0.679  -0.012  0.00  0.00    +0.004 A 
ATOM     21  C   LIG    1        0.002  -0.004   0.002  0.00  0.00    +0.001 A 
ENDBRANCH  15  19
ENDBRANCH  14  15
ENDBRANCH  13  14
ENDBRANCH  11  13
ENDBRANCH   1  11
BRANCH   4  22
ATOM     22  O   LIG    1       10.778  -4.655   3.746  0.00  0.00    -0.481 OA
ATOM     23  H   LIG    1       11.547  -4.073   3.816  0.00  0.00    +0.372 HD
ENDBRANCH   4  22
TORSDOF 7
