REMARK  Name = CHEMBL169465
REMARK                            x       y       z     vdW  Elec       q    Type
REMARK                         _______ _______ _______ _____ _____    ______ ____
ROOT
ATOM      1  C   LIG    1       -0.017   1.388   0.010  0.00  0.00    +0.141 A 
ATOM      2  C   LIG    1        1.185   2.099   0.002  0.00  0.00    -0.185 A 
ATOM      3  C   LIG    1        2.406   1.411  -0.013  0.00  0.00    +0.109 A 
ATOM      4  C   LIG    1        2.424   0.031  -0.021  0.00  0.00    +0.072 A 
ATOM      5  C   LIG    1        1.229  -0.686  -0.014  0.00  0.00    +0.163 A 
ATOM      6  C   LIG    1        0.002  -0.004   0.002  0.00  0.00    -0.051 A 
ENDROOT
BRANCH   2   7
ATOM      7  C   LIG    1        1.170   3.568   0.010  0.00  0.00    +0.502 C 
ATOM      8  O   LIG    1        2.214   4.185   0.003  0.00  0.00    -0.449 OA
ENDBRANCH   2   7
BRANCH   4   9
ATOM      9  O   LIG    1        3.612  -0.632  -0.037  0.00  0.00    -0.478 OA
ATOM     10  H   LIG    1        3.964  -0.829   0.842  0.00  0.00    +0.395 HD
ENDBRANCH   4   9
BRANCH   5  11
ATOM     11  O   LIG    1        1.251  -2.041  -0.022  0.00  0.00    -0.478 OA
ATOM     12  H   LIG    1        1.266  -2.439   0.859  0.00  0.00    +0.402 HD
ENDBRANCH   5  11
BRANCH   6  13
ATOM     13  C   LIG    1       -1.227  -0.739   0.010  0.00  0.00    +0.251 C 
ATOM     14  N   LIG    1       -2.202  -1.321   0.017  0.00  0.00    -0.394 NA
ENDBRANCH   6  13
TORSDOF 4
