REMARK  Name = CHEMBL1324
REMARK                            x       y       z     vdW  Elec       q    Type
REMARK                         _______ _______ _______ _____ _____    ______ ____
ROOT
ATOM      1  C   LIG    1        0.188  -4.994   1.246  0.00  0.00    -0.277 A 
ATOM      2  C   LIG    1       -0.413  -4.503   2.410  0.00  0.00    +0.168 A 
ATOM      3  C   LIG    1       -0.293  -5.198   3.593  0.00  0.00    -0.200 A 
ATOM      4  C   LIG    1        0.424  -6.387   3.634  0.00  0.00    +0.307 A 
ATOM      5  O   LIG    1        0.539  -7.069   4.802  0.00  0.00    -0.608 OA
ATOM      6  C   LIG    1        1.026  -6.882   2.477  0.00  0.00    -0.023 A 
ATOM      7  C   LIG    1        0.905  -6.194   1.286  0.00  0.00    +0.104 A 
ENDROOT
BRANCH   3   8
ATOM      8  N   LIG    1       -0.929  -4.677   4.823  0.00  0.00    +0.071 N 
ATOM      9  O   LIG    1       -0.825  -5.286   5.862  0.00  0.00    -0.155 OA
ATOM     10  O   LIG    1       -1.553  -3.642   4.790  0.00  0.00    -0.251 OA
ENDBRANCH   3   8
BRANCH   1  11
ATOM     11  C   LIG    1        0.060  -4.251  -0.021  0.00  0.00    +0.457 C 
ATOM     12  O   LIG    1       -0.010  -4.854  -1.075  0.00  0.00    -0.472 OA
BRANCH  11  17
ATOM     13  C   LIG    1       -0.111   1.501   0.019  0.00  0.00    +0.091 C 
ATOM     14  C   LIG    1       -0.066  -0.006   0.008  0.00  0.00    -0.063 A 
ATOM     15  C   LIG    1       -0.301  -0.693  -1.169  0.00  0.00    -0.012 A 
ATOM     16  C   LIG    1       -0.262  -2.072  -1.186  0.00  0.00    +0.070 A 
ATOM     17  C   LIG    1        0.016  -2.774  -0.011  0.00  0.00    -0.160 A 
ATOM     18  C   LIG    1        0.253  -2.073   1.174  0.00  0.00    +0.067 A 
ATOM     19  C   LIG    1        0.215  -0.694   1.175  0.00  0.00    -0.003 A 
ENDBRANCH  11  17
ENDBRANCH   1  11
BRANCH   6  20
ATOM     20  O   LIG    1        1.728  -8.046   2.521  0.00  0.00    -0.479 OA
ATOM     21  H   LIG    1        1.195  -8.834   2.344  0.00  0.00    +0.370 HD
ENDBRANCH   6  20
TORSDOF 4
