REMARK  Name = CHEMBL1089536
REMARK                            x       y       z     vdW  Elec       q    Type
REMARK                         _______ _______ _______ _____ _____    ______ ____
ROOT
ATOM      1  C   LIG    1        5.813  -1.880   2.812  0.00  0.00    -0.264 A 
ATOM      2  C   LIG    1        6.962  -2.516   3.175  0.00  0.00    +0.098 A 
ATOM      3 CL   LIG    1        8.046  -3.115   1.958  0.00  0.00    -0.035 Cl
ATOM      4  C   LIG    1        7.268  -2.688   4.537  0.00  0.00    -0.215 A 
ATOM      5  C   LIG    1        8.406  -3.318   5.107  0.00  0.00    +0.109 A 
ATOM      6  C   LIG    1        8.553  -3.402   6.456  0.00  0.00    +0.018 A 
ATOM      7  C   LIG    1        7.596  -2.874   7.329  0.00  0.00    +0.331 A 
ATOM      8  O   LIG    1        7.766  -2.972   8.674  0.00  0.00    -0.622 OA
ATOM      9  C   LIG    1        6.474  -2.252   6.810  0.00  0.00    -0.165 A 
ATOM     10  C   LIG    1        6.317  -2.163   5.443  0.00  0.00    +0.011 A 
ATOM     11  S   LIG    1        5.075  -1.466   4.383  0.00  0.00    +0.114 S 
ENDROOT
BRANCH   9  12
ATOM     12  N   LIG    1        5.449  -1.687   7.716  0.00  0.00    +0.062 N 
ATOM     13  O   LIG    1        4.524  -2.373   8.084  0.00  0.00    -0.160 OA
ATOM     14  O   LIG    1        5.537  -0.540   8.088  0.00  0.00    -0.161 OA
ENDBRANCH   9  12
BRANCH   1  15
ATOM     15  C   LIG    1        5.310  -1.600   1.465  0.00  0.00    +0.560 C 
ATOM     16  O   LIG    1        5.946  -1.957   0.492  0.00  0.00    -0.490 OA
BRANCH  15  17
ATOM     17  O   LIG    1        4.141  -0.946   1.304  0.00  0.00    -0.340 OA
BRANCH  17  18
ATOM     18  C   LIG    1        3.711  -0.707  -0.038  0.00  0.00    +0.267 C 
BRANCH  18  22
ATOM     19  C   LIG    1       -0.017   1.378   0.010  0.00  0.00    +0.013 A 
ATOM     20  C   LIG    1        1.171   2.086   0.002  0.00  0.00    +0.001 A 
ATOM     21  C   LIG    1        2.377   1.411  -0.013  0.00  0.00    +0.031 A 
ATOM     22  C   LIG    1        2.396   0.029  -0.020  0.00  0.00    -0.096 A 
ATOM     23  C   LIG    1        1.208  -0.679  -0.012  0.00  0.00    +0.031 A 
ATOM     24  C   LIG    1        0.002  -0.004   0.002  0.00  0.00    +0.002 A 
ENDBRANCH  18  22
ENDBRANCH  17  18
ENDBRANCH  15  17
ENDBRANCH   1  15
BRANCH   6  25
ATOM     25  O   LIG    1        9.656  -4.014   6.968  0.00  0.00    -0.478 OA
ATOM     26  H   LIG    1       10.402  -3.418   7.117  0.00  0.00    +0.378 HD
ENDBRANCH   6  25
TORSDOF 6
