REMARK  Name = CHEMBL1089537
REMARK                            x       y       z     vdW  Elec       q    Type
REMARK                         _______ _______ _______ _____ _____    ______ ____
ROOT
ATOM      1  C   LIG    1       -3.764  -2.802  -3.595  0.00  0.00    -0.179 A 
ATOM      2  C   LIG    1       -3.531  -3.577  -4.691  0.00  0.00    +0.030 A 
ATOM      3 CL   LIG    1       -2.460  -4.939  -4.581  0.00  0.00    +0.005 Cl
ATOM      4  C   LIG    1       -4.159  -3.271  -5.912  0.00  0.00    -0.085 A 
ATOM      5  C   LIG    1       -4.042  -3.953  -7.152  0.00  0.00    +0.136 A 
ATOM      6  C   LIG    1       -4.722  -3.524  -8.249  0.00  0.00    +0.096 A 
ATOM      7  C   LIG    1       -5.557  -2.403  -8.198  0.00  0.00    +0.193 A 
ATOM      8  C   LIG    1       -5.695  -1.713  -7.006  0.00  0.00    -0.013 A 
ATOM      9  C   LIG    1       -5.009  -2.141  -5.890  0.00  0.00    -0.090 A 
ATOM     10  S   LIG    1       -4.905  -1.576  -4.210  0.00  0.00    +0.218 S 
ENDROOT
BRANCH   8  11
ATOM     11  N   LIG    1       -6.573  -0.524  -6.931  0.00  0.00    +0.022 N 
ATOM     12  O   LIG    1       -6.124   0.575  -7.162  0.00  0.00    -0.109 OA
ATOM     13  O   LIG    1       -7.739  -0.651  -6.640  0.00  0.00    -0.124 OA
ENDBRANCH   8  11
BRANCH   1  14
ATOM     14  C   LIG    1       -3.218  -2.945  -2.243  0.00  0.00    +0.549 C 
ATOM     15  O   LIG    1       -2.444  -3.848  -1.992  0.00  0.00    -0.446 OA
BRANCH  14  16
ATOM     16  O   LIG    1       -3.575  -2.074  -1.276  0.00  0.00    -0.346 OA
BRANCH  16  17
ATOM     17  C   LIG    1       -3.004  -2.272   0.018  0.00  0.00    +0.493 C 
BRANCH  17  18
ATOM     18  O   LIG    1       -1.639  -1.849   0.008  0.00  0.00    -0.353 OA
BRANCH  18  19
ATOM     19  C   LIG    1       -1.412  -0.526   0.013  0.00  0.00    +0.462 C 
ATOM     20  O   LIG    1       -2.341   0.247   0.026  0.00  0.00    -0.488 OA
BRANCH  19  22
ATOM     21  C   LIG    1       -0.019   1.526   0.010  0.00  0.00    +0.065 C 
ATOM     22  C   LIG    1        0.002  -0.004   0.002  0.00  0.00    +0.024 C 
ATOM     23  C   LIG    1        0.742  -0.511   1.242  0.00  0.00    +0.061 C 
ENDBRANCH  19  22
ENDBRANCH  18  19
ENDBRANCH  17  18
ENDBRANCH  16  17
ENDBRANCH  14  16
ENDBRANCH   1  14
BRANCH   6  24
ATOM     24  O   LIG    1       -4.587  -4.201  -9.422  0.00  0.00    -0.468 OA
ATOM     25  H   LIG    1       -5.229  -4.914  -9.541  0.00  0.00    +0.401 HD
ENDBRANCH   6  24
BRANCH   7  26
ATOM     26  O   LIG    1       -6.225  -1.994  -9.309  0.00  0.00    -0.467 OA
ATOM     27  H   LIG    1       -7.100  -2.393  -9.410  0.00  0.00    +0.412 HD
ENDBRANCH   7  26
TORSDOF 9
