REMARK  Name = CHEMBL168389
REMARK                            x       y       z     vdW  Elec       q    Type
REMARK                         _______ _______ _______ _____ _____    ______ ____
ROOT
ATOM      1  C   LIG    1        0.148  -4.284  -2.385  0.00  0.00    -0.090 A 
ATOM      2  C   LIG    1        0.855  -4.919  -3.417  0.00  0.00    +0.159 A 
ATOM      3  C   LIG    1        0.976  -6.290  -3.424  0.00  0.00    -0.068 A 
ATOM      4  C   LIG    1        0.399  -7.048  -2.412  0.00  0.00    +0.173 A 
ATOM      5  C   LIG    1       -0.307  -6.424  -1.382  0.00  0.00    +0.090 A 
ATOM      6  C   LIG    1       -0.428  -5.050  -1.362  0.00  0.00    +0.095 A 
ENDROOT
BRANCH   3   7
ATOM      7  N   LIG    1        1.722  -6.959  -4.513  0.00  0.00    +0.034 N 
ATOM      8  O   LIG    1        1.829  -8.163  -4.521  0.00  0.00    -0.128 OA
ATOM      9  O   LIG    1        2.225  -6.301  -5.394  0.00  0.00    -0.154 OA
ENDBRANCH   3   7
BRANCH   1  11
ATOM     10  C   LIG    1        0.016  -2.143  -1.177  0.00  0.00    -0.111 C 
ATOM     11  C   LIG    1        0.018  -2.825  -2.374  0.00  0.00    +0.245 C 
BRANCH  10  14
ATOM     12  C   LIG    1       -0.579   1.399   0.045  0.00  0.00    +0.303 C 
ATOM     13  N   LIG    1       -0.283  -0.035   0.020  0.00  0.00    -0.612 N 
ATOM     14  C   LIG    1       -0.281  -0.702  -1.151  0.00  0.00    +0.571 C 
ATOM     15  O   LIG    1       -0.525  -0.113  -2.187  0.00  0.00    -0.519 OA
ATOM     16  C   LIG    1        0.011  -0.745   1.267  0.00  0.00    +0.284 C 
ENDBRANCH  10  14
BRANCH  10  17
ATOM     17  C   LIG    1        0.304  -2.836   0.043  0.00  0.00    +0.249 C 
ATOM     18  N   LIG    1        0.531  -3.386   1.010  0.00  0.00    -0.402 NA
ENDBRANCH  10  17
ENDBRANCH   1  11
BRANCH   4  19
ATOM     19  O   LIG    1        0.522  -8.400  -2.426  0.00  0.00    -0.458 OA
ATOM     20  H   LIG    1        1.302  -8.729  -1.958  0.00  0.00    +0.408 HD
ENDBRANCH   4  19
BRANCH   5  21
ATOM     21  O   LIG    1       -0.870  -7.171  -0.395  0.00  0.00    -0.469 OA
ATOM     22  H   LIG    1       -0.289  -7.324   0.362  0.00  0.00    +0.400 HD
ENDBRANCH   5  21
TORSDOF 6
