REMARK  Name = CHEMBL1089537
REMARK                            x       y       z     vdW  Elec       q    Type
REMARK                         _______ _______ _______ _____ _____    ______ ____
ROOT
ATOM      1  C   LIG    1       -3.764  -2.802  -3.595  0.00  0.00    -0.269 A 
ATOM      2  C   LIG    1       -3.531  -3.577  -4.691  0.00  0.00    +0.101 A 
ATOM      3 CL   LIG    1       -2.460  -4.939  -4.581  0.00  0.00    -0.034 Cl
ATOM      4  C   LIG    1       -4.159  -3.271  -5.912  0.00  0.00    -0.216 A 
ATOM      5  C   LIG    1       -4.042  -3.953  -7.152  0.00  0.00    +0.109 A 
ATOM      6  C   LIG    1       -4.722  -3.524  -8.249  0.00  0.00    +0.018 A 
ATOM      7  C   LIG    1       -5.557  -2.403  -8.198  0.00  0.00    +0.331 A 
ATOM      8  O   LIG    1       -6.225  -1.994  -9.309  0.00  0.00    -0.621 OA
ATOM      9  C   LIG    1       -5.695  -1.713  -7.006  0.00  0.00    -0.165 A 
ATOM     10  C   LIG    1       -5.009  -2.141  -5.890  0.00  0.00    +0.012 A 
ATOM     11  S   LIG    1       -4.905  -1.576  -4.210  0.00  0.00    +0.117 S 
ENDROOT
BRANCH   9  12
ATOM     12  N   LIG    1       -6.573  -0.524  -6.931  0.00  0.00    +0.061 N 
ATOM     13  O   LIG    1       -6.124   0.575  -7.162  0.00  0.00    -0.160 OA
ATOM     14  O   LIG    1       -7.739  -0.651  -6.640  0.00  0.00    -0.161 OA
ENDBRANCH   9  12
BRANCH   1  15
ATOM     15  C   LIG    1       -3.218  -2.945  -2.243  0.00  0.00    +0.560 C 
ATOM     16  O   LIG    1       -2.444  -3.848  -1.992  0.00  0.00    -0.478 OA
BRANCH  15  17
ATOM     17  O   LIG    1       -3.575  -2.074  -1.276  0.00  0.00    -0.349 OA
BRANCH  17  18
ATOM     18  C   LIG    1       -3.004  -2.272   0.018  0.00  0.00    +0.480 C 
BRANCH  18  19
ATOM     19  O   LIG    1       -1.639  -1.849   0.008  0.00  0.00    -0.355 OA
BRANCH  19  20
ATOM     20  C   LIG    1       -1.412  -0.526   0.013  0.00  0.00    +0.462 C 
ATOM     21  O   LIG    1       -2.341   0.247   0.026  0.00  0.00    -0.489 OA
BRANCH  20  23
ATOM     22  C   LIG    1       -0.019   1.526   0.010  0.00  0.00    +0.062 C 
ATOM     23  C   LIG    1        0.002  -0.004   0.002  0.00  0.00    +0.023 C 
ATOM     24  C   LIG    1        0.742  -0.511   1.242  0.00  0.00    +0.058 C 
ENDBRANCH  20  23
ENDBRANCH  19  20
ENDBRANCH  18  19
ENDBRANCH  17  18
ENDBRANCH  15  17
ENDBRANCH   1  15
BRANCH   6  25
ATOM     25  O   LIG    1       -4.587  -4.201  -9.422  0.00  0.00    -0.478 OA
ATOM     26  H   LIG    1       -5.229  -4.914  -9.541  0.00  0.00    +0.378 HD
ENDBRANCH   6  25
TORSDOF 8
