REMARK  Name = CHEMBL197115
REMARK                            x       y       z     vdW  Elec       q    Type
REMARK                         _______ _______ _______ _____ _____    ______ ____
ROOT
ATOM      1  C   LIG    1        5.427  -1.666   1.629  0.00  0.00    -0.087 A 
ATOM      2  C   LIG    1        6.215  -2.100   0.556  0.00  0.00    -0.048 A 
ATOM      3  C   LIG    1        7.398  -2.762   0.794  0.00  0.00    +0.034 A 
ATOM      4  C   LIG    1        7.815  -2.999   2.098  0.00  0.00    +0.012 A 
ATOM      5  C   LIG    1        7.036  -2.570   3.173  0.00  0.00    +0.273 A 
ATOM      6  O   LIG    1        7.447  -2.806   4.448  0.00  0.00    -0.674 OA
ATOM      7  C   LIG    1        5.851  -1.901   2.943  0.00  0.00    -0.137 A 
ENDROOT
BRANCH   7   8
ATOM      8  N   LIG    1        5.026  -1.439   4.082  0.00  0.00    +0.078 N 
ATOM      9  O   LIG    1        5.200  -0.337   4.546  0.00  0.00    -0.173 OA
ATOM     10  O   LIG    1        4.178  -2.164   4.548  0.00  0.00    -0.172 OA
ENDBRANCH   7   8
BRANCH   1  11
ATOM     11  C   LIG    1        4.164  -0.959   1.377  0.00  0.00    +0.386 C 
ATOM     12  O   LIG    1        3.486  -0.579   2.308  0.00  0.00    -0.436 OA
BRANCH  11  13
ATOM     13  C   LIG    1        3.711  -0.707  -0.038  0.00  0.00    +0.099 C 
BRANCH  13  17
ATOM     14  C   LIG    1       -0.017   1.378   0.010  0.00  0.00    -0.005 A 
ATOM     15  C   LIG    1        1.171   2.086   0.002  0.00  0.00    +0.001 A 
ATOM     16  C   LIG    1        2.377   1.411  -0.013  0.00  0.00    +0.013 A 
ATOM     17  C   LIG    1        2.396   0.029  -0.020  0.00  0.00    -0.070 A 
ATOM     18  C   LIG    1        1.208  -0.679  -0.012  0.00  0.00    +0.013 A 
ATOM     19  C   LIG    1        0.002  -0.004   0.002  0.00  0.00    +0.001 A 
ENDBRANCH  13  17
ENDBRANCH  11  13
ENDBRANCH   1  11
BRANCH   4  20
ATOM     20  O   LIG    1        8.983  -3.652   2.327  0.00  0.00    -0.481 OA
ATOM     21  H   LIG    1        9.752  -3.070   2.397  0.00  0.00    +0.372 HD
ENDBRANCH   4  20
TORSDOF 5
