REMARK  Name = CHEMBL167055
REMARK                            x       y       z     vdW  Elec       q    Type
REMARK                         _______ _______ _______ _____ _____    ______ ____
ROOT
ATOM      1  C   LIG    1        0.036  -2.497  -0.449  0.00  0.00    -0.079 A 
ATOM      2  C   LIG    1        0.119  -3.869  -0.737  0.00  0.00    +0.119 A 
ATOM      3  C   LIG    1        1.335  -4.447  -0.968  0.00  0.00    -0.060 A 
ATOM      4  C   LIG    1        2.496  -3.683  -0.919  0.00  0.00    +0.169 A 
ATOM      5  C   LIG    1        2.429  -2.318  -0.633  0.00  0.00    +0.088 A 
ATOM      6  C   LIG    1        1.207  -1.722  -0.405  0.00  0.00    +0.115 A 
ENDROOT
BRANCH   3   7
ATOM      7  N   LIG    1        1.417  -5.893  -1.271  0.00  0.00    +0.035 N 
ATOM      8  O   LIG    1        2.491  -6.408  -1.476  0.00  0.00    -0.125 OA
ATOM      9  O   LIG    1        0.409  -6.560  -1.313  0.00  0.00    -0.159 OA
ENDBRANCH   3   7
BRANCH   1  11
ATOM     10  C   LIG    1       -2.230  -2.616   0.420  0.00  0.00    -0.260 C 
ATOM     11  C   LIG    1       -1.225  -1.895  -0.210  0.00  0.00    +0.190 C 
BRANCH  10  13
ATOM     12  C   LIG    1       -2.580  -5.165   0.378  0.00  0.00    +0.086 C 
ATOM     13  C   LIG    1       -1.942  -3.939   0.978  0.00  0.00    +0.390 C 
ATOM     14  O   LIG    1       -1.189  -4.048   1.923  0.00  0.00    -0.430 OA
ENDBRANCH  10  13
BRANCH  10  15
ATOM     15  C   LIG    1       -3.577  -2.055   0.527  0.00  0.00    +0.404 C 
ATOM     16  C   LIG    1       -4.678  -2.857   1.171  0.00  0.00    +0.082 C 
ATOM     17  O   LIG    1       -3.807  -0.944   0.098  0.00  0.00    -0.448 OA
ENDBRANCH  10  15
ENDBRANCH   1  11
BRANCH   4  18
ATOM     18  O   LIG    1        3.699  -4.268  -1.149  0.00  0.00    -0.457 OA
ATOM     19  H   LIG    1        3.968  -4.261  -2.078  0.00  0.00    +0.407 HD
ENDBRANCH   4  18
BRANCH   5  20
ATOM     20  O   LIG    1        3.568  -1.576  -0.586  0.00  0.00    -0.469 OA
ATOM     21  H   LIG    1        3.818  -1.185  -1.435  0.00  0.00    +0.400 HD
ENDBRANCH   5  20
TORSDOF 6
