REMARK  Name = CHEMBL169891
REMARK                            x       y       z     vdW  Elec       q    Type
REMARK                         _______ _______ _______ _____ _____    ______ ____
ROOT
ATOM      1  C   LIG    1       -0.017   1.374   0.010  0.00  0.00    +0.168 A 
ATOM      2  C   LIG    1        1.184   2.089   0.002  0.00  0.00    -0.009 A 
ATOM      3  C   LIG    1        2.402   1.403  -0.013  0.00  0.00    +0.131 A 
ATOM      4  C   LIG    1        2.413   0.022  -0.021  0.00  0.00    +0.088 A 
ATOM      5  C   LIG    1        1.212  -0.685  -0.013  0.00  0.00    +0.182 A 
ATOM      6  C   LIG    1        0.002  -0.004   0.002  0.00  0.00    -0.068 A 
ENDROOT
BRANCH   6   7
ATOM      7  N   LIG    1       -1.271  -0.760   0.010  0.00  0.00    +0.034 N 
ATOM      8  O   LIG    1       -1.256  -1.969   0.004  0.00  0.00    -0.125 OA
ATOM      9  O   LIG    1       -2.325  -0.168   0.023  0.00  0.00    -0.155 OA
ENDBRANCH   6   7
BRANCH   2  10
ATOM     10  C   LIG    1        1.167   3.521   0.009  0.00  0.00    +0.244 C 
ATOM     11  N   LIG    1        1.153   4.657   0.015  0.00  0.00    -0.375 NA
ENDBRANCH   2  10
BRANCH   4  12
ATOM     12  O   LIG    1        3.596  -0.648  -0.036  0.00  0.00    -0.468 OA
ATOM     13  H   LIG    1        3.947  -0.847   0.843  0.00  0.00    +0.401 HD
ENDBRANCH   4  12
BRANCH   5  14
ATOM     14  O   LIG    1        1.224  -2.043  -0.021  0.00  0.00    -0.458 OA
ATOM     15  H   LIG    1        1.237  -2.442   0.860  0.00  0.00    +0.410 HD
ENDBRANCH   5  14
TORSDOF 4
