REMARK  Name = CHEMBL350927
REMARK                            x       y       z     vdW  Elec       q    Type
REMARK                         _______ _______ _______ _____ _____    ______ ____
ROOT
ATOM      1  C   LIG    1        1.165   3.565   0.009  0.00  0.00    +0.583 C 
ATOM      2  N   LIG    1        2.324   4.253   0.002  0.00  0.00    -0.731 N 
ATOM      3  H   LIG    1        3.170   3.778  -0.008  0.00  0.00    +0.396 HD
ATOM      4  O   LIG    1        0.105   4.159   0.022  0.00  0.00    -0.549 OA
ENDROOT
BRANCH   2   5
ATOM      5  C   LIG    1        2.306   5.718   0.010  0.00  0.00    +0.188 C 
ATOM      6  C   LIG    1        1.567   6.225  -1.230  0.00  0.00    +0.023 C 
ATOM      7  C   LIG    1        1.548   7.755  -1.222  0.00  0.00    -0.012 C 
ATOM      8  C   LIG    1        2.984   8.283  -1.233  0.00  0.00    +0.013 C 
ATOM      9  C   LIG    1        3.723   7.776   0.007  0.00  0.00    -0.008 C 
ATOM     10  C   LIG    1        3.007   8.270   1.265  0.00  0.00    +0.013 C 
ATOM     11  C   LIG    1        1.571   7.742   1.276  0.00  0.00    -0.013 C 
ATOM     12  C   LIG    1        0.832   8.250   0.036  0.00  0.00    +0.016 C 
ATOM     13  C   LIG    1        1.590   6.213   1.268  0.00  0.00    +0.023 C 
ATOM     14  C   LIG    1        3.742   6.246  -0.001  0.00  0.00    +0.019 C 
ENDBRANCH   2   5
BRANCH   1  16
ATOM     15  C   LIG    1       -0.017   1.374   0.010  0.00  0.00    +0.199 A 
ATOM     16  C   LIG    1        1.184   2.089   0.002  0.00  0.00    -0.265 A 
ATOM     17  C   LIG    1        2.401   1.404  -0.013  0.00  0.00    +0.079 A 
ATOM     18  C   LIG    1        2.413   0.022  -0.021  0.00  0.00    -0.023 A 
ATOM     19  C   LIG    1        1.212  -0.685  -0.013  0.00  0.00    +0.306 A 
ATOM     20  O   LIG    1        1.225  -2.043  -0.021  0.00  0.00    -0.610 OA
ATOM     21  C   LIG    1        0.002  -0.004   0.002  0.00  0.00    -0.202 A 
BRANCH  21  22
ATOM     22  N   LIG    1       -1.271  -0.760   0.011  0.00  0.00    +0.070 N 
ATOM     23  O   LIG    1       -1.256  -1.969   0.004  0.00  0.00    -0.157 OA
ATOM     24  O   LIG    1       -2.325  -0.168   0.024  0.00  0.00    -0.248 OA
ENDBRANCH  21  22
BRANCH  18  25
ATOM     25  O   LIG    1        3.597  -0.648  -0.036  0.00  0.00    -0.480 OA
ATOM     26  H   LIG    1        3.948  -0.846   0.843  0.00  0.00    +0.369 HD
ENDBRANCH  18  25
ENDBRANCH   1  16
TORSDOF 4
