REMARK  Name = CHEMBL160038
REMARK                            x       y       z     vdW  Elec       q    Type
REMARK                         _______ _______ _______ _____ _____    ______ ____
ROOT
ATOM      1  C   LIG    1        5.427  -1.666   1.629  0.00  0.00    -0.159 A 
ATOM      2  C   LIG    1        5.848  -1.906   2.943  0.00  0.00    +0.177 A 
ATOM      3  C   LIG    1        7.032  -2.569   3.176  0.00  0.00    -0.077 A 
ATOM      4  C   LIG    1        7.812  -3.000   2.110  0.00  0.00    +0.183 A 
ATOM      5  C   LIG    1        7.400  -2.764   0.799  0.00  0.00    +0.076 A 
ATOM      6  C   LIG    1        6.212  -2.105   0.556  0.00  0.00    +0.126 A 
ENDROOT
BRANCH   3   7
ATOM      7  N   LIG    1        7.475  -2.822   4.565  0.00  0.00    +0.034 N 
ATOM      8  O   LIG    1        8.514  -3.404   4.772  0.00  0.00    -0.129 OA
ATOM      9  O   LIG    1        6.797  -2.447   5.494  0.00  0.00    -0.156 OA
ENDBRANCH   3   7
BRANCH   1  10
ATOM     10  C   LIG    1        4.164  -0.959   1.377  0.00  0.00    +0.399 C 
ATOM     11  O   LIG    1        3.486  -0.579   2.308  0.00  0.00    -0.420 OA
BRANCH  10  12
ATOM     12  C   LIG    1        3.711  -0.707  -0.038  0.00  0.00    +0.102 C 
BRANCH  12  16
ATOM     13  C   LIG    1       -0.017   1.378   0.010  0.00  0.00    +0.007 A 
ATOM     14  C   LIG    1        1.171   2.086   0.002  0.00  0.00    +0.007 A 
ATOM     15  C   LIG    1        2.377   1.411  -0.013  0.00  0.00    +0.014 A 
ATOM     16  C   LIG    1        2.396   0.029  -0.020  0.00  0.00    -0.083 A 
ATOM     17  C   LIG    1        1.208  -0.679  -0.012  0.00  0.00    +0.013 A 
ATOM     18  C   LIG    1        0.002  -0.004   0.002  0.00  0.00    +0.006 A 
ENDBRANCH  12  16
ENDBRANCH  10  12
ENDBRANCH   1  10
BRANCH   4  19
ATOM     19  O   LIG    1        8.978  -3.653   2.346  0.00  0.00    -0.459 OA
ATOM     20  H   LIG    1        8.885  -4.613   2.412  0.00  0.00    +0.409 HD
ENDBRANCH   4  19
BRANCH   5  21
ATOM     21  O   LIG    1        8.168  -3.188  -0.241  0.00  0.00    -0.469 OA
ATOM     22  H   LIG    1        7.959  -4.081  -0.546  0.00  0.00    +0.399 HD
ENDBRANCH   5  21
TORSDOF 6
