REMARK  Name = CHEMBL1089504
REMARK                            x       y       z     vdW  Elec       q    Type
REMARK                         _______ _______ _______ _____ _____    ______ ____
ROOT
ATOM      1  C   LIG    1        0.659  -2.064  -1.123  0.00  0.00    -0.265 A 
ATOM      2  C   LIG    1        1.220  -2.844  -2.090  0.00  0.00    +0.098 A 
ATOM      3 CL   LIG    1        1.994  -2.109  -3.458  0.00  0.00    -0.035 Cl
ATOM      4  C   LIG    1        1.169  -4.245  -1.976  0.00  0.00    -0.216 A 
ATOM      5  C   LIG    1        1.690  -5.216  -2.873  0.00  0.00    +0.109 A 
ATOM      6  C   LIG    1        1.556  -6.544  -2.615  0.00  0.00    +0.018 A 
ATOM      7  C   LIG    1        0.904  -7.003  -1.466  0.00  0.00    +0.331 A 
ATOM      8  O   LIG    1        0.782  -8.336  -1.232  0.00  0.00    -0.622 OA
ATOM      9  C   LIG    1        0.383  -6.086  -0.570  0.00  0.00    -0.165 A 
ATOM     10  C   LIG    1        0.514  -4.737  -0.823  0.00  0.00    +0.012 A 
ATOM     11  S   LIG    1        0.019  -3.263   0.034  0.00  0.00    +0.113 S 
ENDROOT
BRANCH   9  12
ATOM     12  N   LIG    1       -0.312  -6.550   0.652  0.00  0.00    +0.062 N 
ATOM     13  O   LIG    1       -1.504  -6.748   0.632  0.00  0.00    -0.160 OA
ATOM     14  O   LIG    1        0.313  -6.731   1.671  0.00  0.00    -0.161 OA
ENDBRANCH   9  12
BRANCH   1  15
ATOM     15  C   LIG    1        0.601  -0.603  -1.048  0.00  0.00    +0.558 C 
ATOM     16  O   LIG    1        1.094   0.071  -1.932  0.00  0.00    -0.490 OA
BRANCH  15  18
ATOM     17  C   LIG    1       -0.017   1.425   0.010  0.00  0.00    +0.261 C 
ATOM     18  O   LIG    1        0.002  -0.004   0.002  0.00  0.00    -0.348 OA
ENDBRANCH  15  18
ENDBRANCH   1  15
BRANCH   6  19
ATOM     19  O   LIG    1        2.067  -7.447  -3.495  0.00  0.00    -0.478 OA
ATOM     20  H   LIG    1        2.982  -7.701  -3.311  0.00  0.00    +0.378 HD
ENDBRANCH   6  19
TORSDOF 4
