REMARK  Name = CHEMBL1089538
REMARK                            x       y       z     vdW  Elec       q    Type
REMARK                         _______ _______ _______ _____ _____    ______ ____
ROOT
ATOM      1  C   LIG    1       -4.141   0.731   2.353  0.00  0.00    -0.177 A 
ATOM      2  C   LIG    1       -3.699   0.813   3.639  0.00  0.00    +0.028 A 
ATOM      3 CL   LIG    1       -2.332  -0.127   4.151  0.00  0.00    +0.005 Cl
ATOM      4  C   LIG    1       -4.353   1.659   4.553  0.00  0.00    -0.084 A 
ATOM      5  C   LIG    1       -4.045   1.877   5.922  0.00  0.00    +0.135 A 
ATOM      6  C   LIG    1       -4.783   2.736   6.674  0.00  0.00    +0.095 A 
ATOM      7  C   LIG    1       -5.867   3.434   6.132  0.00  0.00    +0.192 A 
ATOM      8  C   LIG    1       -6.198   3.247   4.801  0.00  0.00    -0.012 A 
ATOM      9  C   LIG    1       -5.455   2.378   4.032  0.00  0.00    -0.091 A 
ATOM     10  S   LIG    1       -5.522   1.861   2.334  0.00  0.00    +0.217 S 
ENDROOT
BRANCH   8  11
ATOM     11  N   LIG    1       -7.342   3.975   4.208  0.00  0.00    +0.022 N 
ATOM     12  O   LIG    1       -8.448   3.488   4.235  0.00  0.00    -0.109 OA
ATOM     13  O   LIG    1       -7.171   5.058   3.697  0.00  0.00    -0.124 OA
ENDBRANCH   8  11
BRANCH   1  14
ATOM     14  C   LIG    1       -3.610  -0.079   1.254  0.00  0.00    +0.549 C 
ATOM     15  O   LIG    1       -2.651  -0.804   1.442  0.00  0.00    -0.441 OA
BRANCH  14  16
ATOM     16  O   LIG    1       -4.184  -0.022   0.035  0.00  0.00    -0.343 OA
BRANCH  16  17
ATOM     17  C   LIG    1       -3.542  -0.743  -1.018  0.00  0.00    +0.400 C 
ATOM     18  C   LIG    1       -2.096  -0.264  -1.158  0.00  0.00    +0.089 C 
BRANCH  17  19
ATOM     19  O   LIG    1       -3.553  -2.140  -0.715  0.00  0.00    -0.348 OA
BRANCH  19  20
ATOM     20  C   LIG    1       -4.736  -2.770  -0.792  0.00  0.00    +0.462 C 
ATOM     21  O   LIG    1       -5.743  -2.141  -1.015  0.00  0.00    -0.489 OA
BRANCH  20  23
ATOM     22  C   LIG    1       -4.286  -4.623   0.793  0.00  0.00    +0.059 C 
ATOM     23  C   LIG    1       -4.808  -4.263  -0.599  0.00  0.00    +0.027 C 
ATOM     24  C   LIG    1       -6.260  -4.726  -0.735  0.00  0.00    +0.064 C 
ENDBRANCH  20  23
ENDBRANCH  19  20
ENDBRANCH  17  19
ENDBRANCH  16  17
ENDBRANCH  14  16
ENDBRANCH   1  14
BRANCH   6  25
ATOM     25  O   LIG    1       -4.460   2.921   7.983  0.00  0.00    -0.468 OA
ATOM     26  H   LIG    1       -3.827   3.636   8.134  0.00  0.00    +0.401 HD
ENDBRANCH   6  25
BRANCH   7  27
ATOM     27  O   LIG    1       -6.590   4.287   6.905  0.00  0.00    -0.467 OA
ATOM     28  H   LIG    1       -6.260   5.196   6.902  0.00  0.00    +0.412 HD
ENDBRANCH   7  27
TORSDOF 9
