REMARK  Name = CHEMBL169465
REMARK                            x       y       z     vdW  Elec       q    Type
REMARK                         _______ _______ _______ _____ _____    ______ ____
ROOT
ATOM      1  C   LIG    1       -0.017   1.388   0.010  0.00  0.00    +0.155 A 
ATOM      2  C   LIG    1        1.185   2.099   0.002  0.00  0.00    -0.322 A 
ATOM      3  C   LIG    1        2.406   1.411  -0.013  0.00  0.00    +0.099 A 
ATOM      4  C   LIG    1        2.424   0.031  -0.021  0.00  0.00    -0.046 A 
ATOM      5  C   LIG    1        1.229  -0.686  -0.014  0.00  0.00    +0.315 A 
ATOM      6  O   LIG    1        1.251  -2.041  -0.022  0.00  0.00    -0.661 OA
ATOM      7  C   LIG    1        0.002  -0.004   0.002  0.00  0.00    -0.205 A 
ENDROOT
BRANCH   2   8
ATOM      8  C   LIG    1        1.170   3.568   0.010  0.00  0.00    +0.477 C 
ATOM      9  O   LIG    1        2.214   4.185   0.003  0.00  0.00    -0.504 OA
ENDBRANCH   2   8
BRANCH   4  10
ATOM     10  O   LIG    1        3.612  -0.632  -0.037  0.00  0.00    -0.486 OA
ATOM     11  H   LIG    1        3.964  -0.829   0.842  0.00  0.00    +0.364 HD
ENDBRANCH   4  10
BRANCH   7  12
ATOM     12  C   LIG    1       -1.227  -0.739   0.010  0.00  0.00    +0.305 C 
ATOM     13  N   LIG    1       -2.202  -1.321   0.017  0.00  0.00    -0.490 NA
ENDBRANCH   7  12
TORSDOF 3
