REMARK  Name = CHEMBL355402
REMARK                            x       y       z     vdW  Elec       q    Type
REMARK                         _______ _______ _______ _____ _____    ______ ____
ROOT
ATOM      1  C   LIG    1       -0.017   1.378   0.010  0.00  0.00    +0.137 A 
ATOM      2  C   LIG    1        1.169   2.089   0.002  0.00  0.00    -0.217 A 
ATOM      3  C   LIG    1        2.379   1.420  -0.013  0.00  0.00    +0.071 A 
ATOM      4  C   LIG    1        2.405   0.035  -0.021  0.00  0.00    -0.027 A 
ATOM      5  C   LIG    1        1.211  -0.680  -0.013  0.00  0.00    +0.295 A 
ATOM      6  O   LIG    1        1.232  -2.040  -0.021  0.00  0.00    -0.627 OA
ATOM      7  C   LIG    1        0.002  -0.004   0.002  0.00  0.00    -0.201 A 
ENDROOT
BRANCH   7   8
ATOM      8  N   LIG    1       -1.270  -0.761   0.011  0.00  0.00    +0.074 N 
ATOM      9  O   LIG    1       -1.253  -1.970   0.004  0.00  0.00    -0.162 OA
ATOM     10  O   LIG    1       -2.325  -0.171   0.024  0.00  0.00    -0.260 OA
ENDBRANCH   7   8
BRANCH   4  11
ATOM     11  O   LIG    1        3.594  -0.625  -0.037  0.00  0.00    -0.482 OA
ATOM     12  H   LIG    1        3.947  -0.820   0.842  0.00  0.00    +0.367 HD
ENDBRANCH   4  11
BRANCH   2  13
ATOM     13  C   LIG    1        1.143   3.595   0.011  0.00  0.00    +0.234 C 
BRANCH  13  14
ATOM     14  O   LIG    1        1.148   4.064   1.360  0.00  0.00    -0.572 OA
ATOM     15  H   LIG    1        1.132   5.028   1.442  0.00  0.00    +0.369 HD
ENDBRANCH  13  14
ENDBRANCH   2  13
TORSDOF 4
