REMARK  Name = CHEMBL1089505
REMARK                            x       y       z     vdW  Elec       q    Type
REMARK                         _______ _______ _______ _____ _____    ______ ____
ROOT
ATOM      1  C   LIG    1        1.394  -3.987  -2.389  0.00  0.00    -0.264 A 
ATOM      2  C   LIG    1        1.955  -4.766  -3.356  0.00  0.00    +0.098 A 
ATOM      3 CL   LIG    1        2.729  -4.032  -4.725  0.00  0.00    -0.035 Cl
ATOM      4  C   LIG    1        1.905  -6.167  -3.243  0.00  0.00    -0.215 A 
ATOM      5  C   LIG    1        2.426  -7.138  -4.139  0.00  0.00    +0.108 A 
ATOM      6  C   LIG    1        2.292  -8.467  -3.882  0.00  0.00    +0.018 A 
ATOM      7  C   LIG    1        1.639  -8.925  -2.732  0.00  0.00    +0.331 A 
ATOM      8  O   LIG    1        1.518 -10.258  -2.498  0.00  0.00    -0.622 OA
ATOM      9  C   LIG    1        1.118  -8.008  -1.836  0.00  0.00    -0.165 A 
ATOM     10  C   LIG    1        1.250  -6.660  -2.089  0.00  0.00    +0.011 A 
ATOM     11  S   LIG    1        0.754  -5.186  -1.233  0.00  0.00    +0.113 S 
ENDROOT
BRANCH   9  12
ATOM     12  N   LIG    1        0.424  -8.472  -0.614  0.00  0.00    +0.062 N 
ATOM     13  O   LIG    1       -0.769  -8.670  -0.635  0.00  0.00    -0.160 OA
ATOM     14  O   LIG    1        1.049  -8.653   0.405  0.00  0.00    -0.161 OA
ENDBRANCH   9  12
BRANCH   1  15
ATOM     15  C   LIG    1        1.337  -2.525  -2.314  0.00  0.00    +0.560 C 
ATOM     16  O   LIG    1        1.829  -1.851  -3.199  0.00  0.00    -0.491 OA
BRANCH  15  17
ATOM     17  O   LIG    1        0.738  -1.926  -1.265  0.00  0.00    -0.346 OA
BRANCH  17  18
ATOM     18  C   LIG    1        0.718  -0.497  -1.257  0.00  0.00    +0.203 C 
BRANCH  18  20
ATOM     19  C   LIG    1       -0.019   1.526   0.010  0.00  0.00    +0.030 C 
ATOM     20  C   LIG    1        0.002  -0.004   0.002  0.00  0.00    +0.025 C 
ENDBRANCH  18  20
ENDBRANCH  17  18
ENDBRANCH  15  17
ENDBRANCH   1  15
BRANCH   6  21
ATOM     21  O   LIG    1        2.803  -9.370  -4.762  0.00  0.00    -0.478 OA
ATOM     22  H   LIG    1        3.718  -9.623  -4.578  0.00  0.00    +0.378 HD
ENDBRANCH   6  21
TORSDOF 6
