REMARK  Name = CHEMBL1091204
REMARK                            x       y       z     vdW  Elec       q    Type
REMARK                         _______ _______ _______ _____ _____    ______ ____
ROOT
ATOM      1  C   LIG    1        0.596  -1.183   3.491  0.00  0.00    -0.173 A 
ATOM      2  C   LIG    1        0.024  -1.467   4.694  0.00  0.00    +0.026 A 
ATOM      3 CL   LIG    1       -1.686  -1.260   4.915  0.00  0.00    +0.004 Cl
ATOM      4  C   LIG    1        0.821  -1.928   5.758  0.00  0.00    -0.083 A 
ATOM      5  C   LIG    1        0.412  -2.273   7.074  0.00  0.00    +0.134 A 
ATOM      6  C   LIG    1        1.316  -2.705   7.993  0.00  0.00    +0.096 A 
ATOM      7  C   LIG    1        2.675  -2.826   7.680  0.00  0.00    +0.191 A 
ATOM      8  C   LIG    1        3.109  -2.499   6.407  0.00  0.00    -0.012 A 
ATOM      9  C   LIG    1        2.200  -2.060   5.470  0.00  0.00    -0.091 A 
ATOM     10  S   LIG    1        2.318  -1.557   3.771  0.00  0.00    +0.214 S 
ENDROOT
BRANCH   8  11
ATOM     11  N   LIG    1        4.542  -2.619   6.056  0.00  0.00    +0.023 N 
ATOM     12  O   LIG    1        5.286  -1.680   6.220  0.00  0.00    -0.110 OA
ATOM     13  O   LIG    1        4.969  -3.656   5.604  0.00  0.00    -0.125 OA
ENDBRANCH   8  11
BRANCH   1  14
ATOM     14  C   LIG    1       -0.046  -0.698   2.267  0.00  0.00    +0.548 C 
ATOM     15  O   LIG    1       -1.244  -0.493   2.248  0.00  0.00    -0.460 OA
BRANCH  14  16
ATOM     16  O   LIG    1        0.693  -0.477   1.160  0.00  0.00    -0.337 OA
BRANCH  16  18
ATOM     17  C   LIG    1       -0.019   1.526   0.010  0.00  0.00    +0.037 C 
ATOM     18  C   LIG    1        0.002  -0.004   0.002  0.00  0.00    +0.171 C 
ATOM     19  C   LIG    1        0.718  -0.497  -1.257  0.00  0.00    +0.069 C 
ENDBRANCH  16  18
ENDBRANCH  14  16
ENDBRANCH   1  14
BRANCH   6  20
ATOM     20  O   LIG    1        0.891  -3.026   9.245  0.00  0.00    -0.469 OA
ATOM     21  H   LIG    1        0.633  -3.953   9.347  0.00  0.00    +0.401 HD
ENDBRANCH   6  20
BRANCH   7  22
ATOM     22  O   LIG    1        3.558  -3.260   8.617  0.00  0.00    -0.467 OA
ATOM     23  H   LIG    1        3.680  -4.219   8.628  0.00  0.00    +0.412 HD
ENDBRANCH   7  22
TORSDOF 6
