REMARK  Name = CHEMBL167172
REMARK                            x       y       z     vdW  Elec       q    Type
REMARK                         _______ _______ _______ _____ _____    ______ ____
ROOT
ATOM      1  C   LIG    1        1.165   3.575   0.010  0.00  0.00    +0.581 C 
ATOM      2  N   LIG    1        2.325   4.263   0.002  0.00  0.00    -0.733 N 
ATOM      3  H   LIG    1        3.170   3.787  -0.008  0.00  0.00    +0.396 HD
ATOM      4  O   LIG    1        0.105   4.171   0.023  0.00  0.00    -0.557 OA
ENDROOT
BRANCH   2   5
ATOM      5  C   LIG    1        2.308   5.727   0.010  0.00  0.00    +0.188 C 
ATOM      6  C   LIG    1        1.569   6.236  -1.230  0.00  0.00    +0.023 C 
ATOM      7  C   LIG    1        1.552   7.765  -1.222  0.00  0.00    -0.014 C 
ATOM      8  C   LIG    1        2.989   8.292  -1.233  0.00  0.00    +0.012 C 
ATOM      9  C   LIG    1        3.727   7.784   0.007  0.00  0.00    -0.009 C 
ATOM     10  C   LIG    1        3.012   8.279   1.265  0.00  0.00    +0.012 C 
ATOM     11  C   LIG    1        1.575   7.753   1.276  0.00  0.00    -0.014 C 
ATOM     12  C   LIG    1        0.837   8.261   0.036  0.00  0.00    +0.015 C 
ATOM     13  C   LIG    1        1.593   6.223   1.268  0.00  0.00    +0.023 C 
ATOM     14  C   LIG    1        3.745   6.254  -0.001  0.00  0.00    +0.018 C 
ENDBRANCH   2   5
BRANCH   1  16
ATOM     15  C   LIG    1       -0.017   1.389   0.010  0.00  0.00    +0.170 A 
ATOM     16  C   LIG    1        1.182   2.099   0.002  0.00  0.00    -0.274 A 
ATOM     17  C   LIG    1        2.401   1.414  -0.013  0.00  0.00    +0.066 A 
ATOM     18  C   LIG    1        2.422   0.033  -0.021  0.00  0.00    -0.039 A 
ATOM     19  C   LIG    1        1.228  -0.685  -0.014  0.00  0.00    +0.311 A 
ATOM     20  O   LIG    1        1.252  -2.041  -0.022  0.00  0.00    -0.665 OA
ATOM     21  C   LIG    1        0.002  -0.004   0.002  0.00  0.00    -0.204 A 
BRANCH  18  22
ATOM     22  O   LIG    1        3.611  -0.628  -0.036  0.00  0.00    -0.486 OA
ATOM     23  H   LIG    1        3.963  -0.824   0.843  0.00  0.00    +0.363 HD
ENDBRANCH  18  22
BRANCH  21  24
ATOM     24  C   LIG    1       -1.227  -0.739   0.010  0.00  0.00    +0.306 C 
ATOM     25  N   LIG    1       -2.202  -1.322   0.017  0.00  0.00    -0.492 NA
ENDBRANCH  21  24
ENDBRANCH   1  16
TORSDOF 4
