REMARK  Name = CHEMBL168600
REMARK                            x       y       z     vdW  Elec       q    Type
REMARK                         _______ _______ _______ _____ _____    ______ ____
ROOT
ATOM      1  C   LIG    1        2.455   0.310   4.191  0.00  0.00    +0.430 C 
ATOM      2  O   LIG    1        2.403   1.526   4.147  0.00  0.00    -0.477 OA
ENDROOT
BRANCH   1   5
ATOM      3  C   LIG    1        0.626  -0.619   1.042  0.00  0.00    +0.136 A 
ATOM      4  C   LIG    1        1.200   0.137   2.047  0.00  0.00    -0.035 A 
ATOM      5  C   LIG    1        1.841  -0.495   3.116  0.00  0.00    -0.076 A 
ATOM      6  C   LIG    1        1.900  -1.891   3.166  0.00  0.00    -0.042 A 
ATOM      7  C   LIG    1        1.325  -2.642   2.158  0.00  0.00    +0.138 A 
ATOM      8  C   LIG    1        0.682  -2.009   1.097  0.00  0.00    +0.050 A 
BRANCH   3  10
ATOM      9  C   LIG    1       -0.017   1.425   0.010  0.00  0.00    +0.244 C 
ATOM     10  O   LIG    1        0.002  -0.004   0.002  0.00  0.00    -0.303 OA
ENDBRANCH   3  10
BRANCH   7  11
ATOM     11  O   LIG    1        1.382  -4.000   2.206  0.00  0.00    -0.303 OA
ATOM     12  C   LIG    1        2.052  -4.582   3.325  0.00  0.00    +0.246 C 
ENDBRANCH   7  11
BRANCH   8  13
ATOM     13  O   LIG    1        0.113  -2.750   0.110  0.00  0.00    -0.313 OA
ATOM     14  C   LIG    1        0.937  -3.085  -1.008  0.00  0.00    +0.218 C 
ENDBRANCH   8  13
ENDBRANCH   1   5
BRANCH   1  15
ATOM     15  C   LIG    1        3.105  -0.333   5.275  0.00  0.00    -0.188 C 
ATOM     16  C   LIG    1        3.668   0.404   6.260  0.00  0.00    +0.199 C 
BRANCH  16  17
ATOM     17  C   LIG    1        4.341  -0.262   7.383  0.00  0.00    -0.221 A 
ATOM     18  C   LIG    1        4.919   0.499   8.406  0.00  0.00    +0.171 A 
ATOM     19  C   LIG    1        5.549  -0.128   9.458  0.00  0.00    -0.198 A 
ATOM     20  C   LIG    1        5.613  -1.514   9.507  0.00  0.00    +0.305 A 
ATOM     21  O   LIG    1        6.236  -2.127  10.547  0.00  0.00    -0.604 OA
ATOM     22  C   LIG    1        5.040  -2.280   8.491  0.00  0.00    -0.019 A 
ATOM     23  C   LIG    1        4.402  -1.660   7.436  0.00  0.00    +0.084 A 
BRANCH  19  24
ATOM     24  N   LIG    1        6.160   0.678  10.539  0.00  0.00    +0.069 N 
ATOM     25  O   LIG    1        6.714   0.129  11.463  0.00  0.00    -0.154 OA
ATOM     26  O   LIG    1        6.106   1.885  10.497  0.00  0.00    -0.248 OA
ENDBRANCH  19  24
BRANCH  22  27
ATOM     27  O   LIG    1        5.107  -3.637   8.543  0.00  0.00    -0.480 OA
ATOM     28  H   LIG    1        4.363  -4.050   9.004  0.00  0.00    +0.370 HD
ENDBRANCH  22  27
ENDBRANCH  16  17
ENDBRANCH   1  15
TORSDOF 8
