REMARK  Name = CHEMBL1091981
REMARK                            x       y       z     vdW  Elec       q    Type
REMARK                         _______ _______ _______ _____ _____    ______ ____
ROOT
ATOM      1  C   LIG    1       -0.429  -4.186   2.994  0.00  0.00    -0.267 A 
ATOM      2  C   LIG    1        0.721  -3.740   3.573  0.00  0.00    +0.099 A 
ATOM      3 CL   LIG    1        1.833  -2.766   2.663  0.00  0.00    -0.034 Cl
ATOM      4  C   LIG    1        1.006  -4.071   4.910  0.00  0.00    -0.216 A 
ATOM      5  C   LIG    1        2.141  -3.704   5.681  0.00  0.00    +0.109 A 
ATOM      6  C   LIG    1        2.266  -4.110   6.973  0.00  0.00    +0.018 A 
ATOM      7  C   LIG    1        1.288  -4.899   7.588  0.00  0.00    +0.331 A 
ATOM      8  O   LIG    1        1.437  -5.292   8.881  0.00  0.00    -0.621 OA
ATOM      9  C   LIG    1        0.168  -5.276   6.868  0.00  0.00    -0.165 A 
ATOM     10  C   LIG    1        0.033  -4.869   5.558  0.00  0.00    +0.011 A 
ATOM     11  S   LIG    1       -1.205  -5.109   4.309  0.00  0.00    +0.116 S 
ENDROOT
BRANCH   9  12
ATOM     12  N   LIG    1       -0.878  -6.111   7.500  0.00  0.00    +0.062 N 
ATOM     13  O   LIG    1       -0.809  -7.316   7.438  0.00  0.00    -0.160 OA
ATOM     14  O   LIG    1       -1.802  -5.587   8.078  0.00  0.00    -0.161 OA
ENDBRANCH   9  12
BRANCH   1  15
ATOM     15  C   LIG    1       -0.911  -3.959   1.629  0.00  0.00    +0.560 C 
ATOM     16  O   LIG    1       -0.249  -3.298   0.852  0.00  0.00    -0.473 OA
BRANCH  15  17
ATOM     17  O   LIG    1       -2.090  -4.483   1.235  0.00  0.00    -0.346 OA
BRANCH  17  18
ATOM     18  C   LIG    1       -2.557  -4.122  -0.067  0.00  0.00    +0.393 C 
ATOM     19  C   LIG    1       -2.664  -2.599  -0.166  0.00  0.00    +0.082 C 
BRANCH  18  20
ATOM     20  O   LIG    1       -1.639  -4.601  -1.052  0.00  0.00    -0.352 OA
BRANCH  20  21
ATOM     21  C   LIG    1       -1.605  -5.926  -1.260  0.00  0.00    +0.456 C 
ATOM     22  O   LIG    1       -2.261  -6.664  -0.564  0.00  0.00    -0.491 OA
BRANCH  21  23
ATOM     23  C   LIG    1       -0.747  -6.494  -2.361  0.00  0.00    +0.099 C 
BRANCH  23  25
ATOM     24  C   LIG    1       -0.017  -8.594  -3.502  0.00  0.00    +0.022 C 
ATOM     25  C   LIG    1       -0.888  -8.017  -2.384  0.00  0.00    +0.029 C 
ENDBRANCH  23  25
ENDBRANCH  21  23
ENDBRANCH  20  21
ENDBRANCH  18  20
ENDBRANCH  17  18
ENDBRANCH  15  17
ENDBRANCH   1  15
BRANCH   6  26
ATOM     26  O   LIG    1        3.367  -3.741   7.683  0.00  0.00    -0.478 OA
ATOM     27  H   LIG    1        3.267  -2.905   8.157  0.00  0.00    +0.378 HD
ENDBRANCH   6  26
TORSDOF 9
