REMARK  Name = CHEMBL8649
REMARK                            x       y       z     vdW  Elec       q    Type
REMARK                         _______ _______ _______ _____ _____    ______ ____
ROOT
ATOM      1  C   LIG    1        7.936  -3.067   4.064  0.00  0.00    -0.123 A 
ATOM      2  C   LIG    1        7.337  -2.737   5.285  0.00  0.00    +0.113 A 
ATOM      3  C   LIG    1        7.952  -3.081   6.468  0.00  0.00    +0.054 A 
ATOM      4  C   LIG    1        9.167  -3.754   6.453  0.00  0.00    +0.131 A 
ATOM      5  C   LIG    1        9.771  -4.086   5.240  0.00  0.00    +0.119 A 
ATOM      6  C   LIG    1        9.158  -3.750   4.050  0.00  0.00    +0.003 A 
ENDROOT
BRANCH   6   7
ATOM      7  N   LIG    1        9.794  -4.107   2.762  0.00  0.00    +0.037 N 
ATOM      8  O   LIG    1        9.543  -5.167   2.236  0.00  0.00    -0.133 OA
ATOM      9  O   LIG    1       10.565  -3.339   2.235  0.00  0.00    -0.117 OA
ENDBRANCH   6   7
BRANCH   1  10
ATOM     10  C   LIG    1        7.282  -2.702   2.800  0.00  0.00    +0.383 C 
ATOM     11  O   LIG    1        7.800  -2.993   1.743  0.00  0.00    -0.426 OA
BRANCH  10  12
ATOM     12  C   LIG    1        5.967  -1.966   2.818  0.00  0.00    +0.055 C 
BRANCH  12  13
ATOM     13  C   LIG    1        5.507  -1.710   1.381  0.00  0.00    +0.032 C 
BRANCH  13  14
ATOM     14  C   LIG    1        4.171  -0.963   1.399  0.00  0.00    +0.020 C 
BRANCH  14  15
ATOM     15  C   LIG    1        3.711  -0.707  -0.038  0.00  0.00    +0.065 C 
BRANCH  15  19
ATOM     16  C   LIG    1       -0.017   1.378   0.010  0.00  0.00    -0.005 A 
ATOM     17  C   LIG    1        1.171   2.086   0.002  0.00  0.00    +0.004 A 
ATOM     18  C   LIG    1        2.377   1.411  -0.013  0.00  0.00    +0.002 A 
ATOM     19  C   LIG    1        2.396   0.029  -0.020  0.00  0.00    -0.082 A 
ATOM     20  C   LIG    1        1.208  -0.679  -0.012  0.00  0.00    +0.002 A 
ATOM     21  C   LIG    1        0.002  -0.004   0.002  0.00  0.00    +0.003 A 
ENDBRANCH  15  19
ENDBRANCH  14  15
ENDBRANCH  13  14
ENDBRANCH  12  13
ENDBRANCH  10  12
ENDBRANCH   1  10
BRANCH   4  22
ATOM     22  O   LIG    1        9.768  -4.090   7.623  0.00  0.00    -0.472 OA
ATOM     23  H   LIG    1        9.514  -4.960   7.960  0.00  0.00    +0.403 HD
ENDBRANCH   4  22
BRANCH   5  24
ATOM     24  O   LIG    1       10.960  -4.745   5.231  0.00  0.00    -0.473 OA
ATOM     25  H   LIG    1       10.876  -5.708   5.226  0.00  0.00    +0.404 HD
ENDBRANCH   5  24
TORSDOF 9
