REMARK  Name = CHEMBL169891
REMARK                            x       y       z     vdW  Elec       q    Type
REMARK                         _______ _______ _______ _____ _____    ______ ____
ROOT
ATOM      1  C   LIG    1       -0.017   1.374   0.010  0.00  0.00    +0.183 A 
ATOM      2  C   LIG    1        1.184   2.089   0.002  0.00  0.00    -0.160 A 
ATOM      3  C   LIG    1        2.402   1.403  -0.013  0.00  0.00    +0.098 A 
ATOM      4  C   LIG    1        2.413   0.022  -0.021  0.00  0.00    -0.013 A 
ATOM      5  C   LIG    1        1.212  -0.685  -0.013  0.00  0.00    +0.306 A 
ATOM      6  O   LIG    1        1.224  -2.043  -0.021  0.00  0.00    -0.605 OA
ATOM      7  C   LIG    1        0.002  -0.004   0.002  0.00  0.00    -0.195 A 
ENDROOT
BRANCH   7   8
ATOM      8  N   LIG    1       -1.271  -0.760   0.010  0.00  0.00    +0.070 N 
ATOM      9  O   LIG    1       -1.256  -1.969   0.004  0.00  0.00    -0.152 OA
ATOM     10  O   LIG    1       -2.325  -0.168   0.023  0.00  0.00    -0.248 OA
ENDBRANCH   7   8
BRANCH   2  11
ATOM     11  C   LIG    1        1.167   3.521   0.009  0.00  0.00    +0.286 C 
ATOM     12  N   LIG    1        1.153   4.657   0.015  0.00  0.00    -0.466 NA
ENDBRANCH   2  11
BRANCH   4  13
ATOM     13  O   LIG    1        3.596  -0.648  -0.036  0.00  0.00    -0.478 OA
ATOM     14  H   LIG    1        3.947  -0.847   0.843  0.00  0.00    +0.372 HD
ENDBRANCH   4  13
TORSDOF 3
