REMARK  Name = CHEMBL1091981
REMARK                            x       y       z     vdW  Elec       q    Type
REMARK                         _______ _______ _______ _____ _____    ______ ____
ROOT
ATOM      1  C   LIG    1        0.125  -5.198  -2.296  0.00  0.00    -0.177 A 
ATOM      2  C   LIG    1        1.465  -5.213  -2.543  0.00  0.00    +0.028 A 
ATOM      3 CL   LIG    1        2.560  -4.431  -1.447  0.00  0.00    +0.005 Cl
ATOM      4  C   LIG    1        1.958  -5.864  -3.688  0.00  0.00    -0.084 A 
ATOM      5  C   LIG    1        3.308  -5.986  -4.113  0.00  0.00    +0.135 A 
ATOM      6  C   LIG    1        3.621  -6.654  -5.256  0.00  0.00    +0.095 A 
ATOM      7  C   LIG    1        2.632  -7.241  -6.052  0.00  0.00    +0.192 A 
ATOM      8  C   LIG    1        1.306  -7.143  -5.670  0.00  0.00    -0.013 A 
ATOM      9  C   LIG    1        0.980  -6.468  -4.513  0.00  0.00    -0.091 A 
ATOM     10  S   LIG    1       -0.544  -6.117  -3.672  0.00  0.00    +0.221 S 
ENDROOT
BRANCH   8  11
ATOM     11  N   LIG    1        0.244  -7.757  -6.498  0.00  0.00    +0.023 N 
ATOM     12  O   LIG    1       -0.280  -7.118  -7.380  0.00  0.00    -0.109 OA
ATOM     13  O   LIG    1       -0.099  -8.898  -6.292  0.00  0.00    -0.125 OA
ENDBRANCH   8  11
BRANCH   1  14
ATOM     14  C   LIG    1       -0.590  -4.584  -1.175  0.00  0.00    +0.548 C 
ATOM     15  O   LIG    1        0.027  -3.988  -0.314  0.00  0.00    -0.448 OA
BRANCH  14  16
ATOM     16  O   LIG    1       -1.933  -4.681  -1.097  0.00  0.00    -0.342 OA
BRANCH  16  17
ATOM     17  C   LIG    1       -2.555  -4.157   0.078  0.00  0.00    +0.398 C 
ATOM     18  C   LIG    1       -4.018  -4.601   0.123  0.00  0.00    +0.091 C 
BRANCH  17  19
ATOM     19  O   LIG    1       -2.491  -2.729   0.055  0.00  0.00    -0.353 OA
BRANCH  19  20
ATOM     20  C   LIG    1       -3.140  -2.106  -0.941  0.00  0.00    +0.458 C 
ATOM     21  O   LIG    1       -3.658  -2.752  -1.821  0.00  0.00    -0.485 OA
BRANCH  20  22
ATOM     22  C   LIG    1       -3.223  -0.602  -0.962  0.00  0.00    +0.099 C 
BRANCH  22  24
ATOM     23  C   LIG    1       -4.095   1.377  -2.215  0.00  0.00    +0.024 C 
ATOM     24  C   LIG    1       -4.011  -0.151  -2.194  0.00  0.00    +0.030 C 
ENDBRANCH  22  24
ENDBRANCH  20  22
ENDBRANCH  19  20
ENDBRANCH  17  19
ENDBRANCH  16  17
ENDBRANCH  14  16
ENDBRANCH   1  14
BRANCH   6  25
ATOM     25  O   LIG    1        4.925  -6.751  -5.633  0.00  0.00    -0.468 OA
ATOM     26  H   LIG    1        5.378  -7.530  -5.283  0.00  0.00    +0.401 HD
ENDBRANCH   6  25
BRANCH   7  27
ATOM     27  O   LIG    1        2.971  -7.902  -7.190  0.00  0.00    -0.467 OA
ATOM     28  H   LIG    1        3.146  -8.845  -7.060  0.00  0.00    +0.412 HD
ENDBRANCH   7  27
TORSDOF 10
