REMARK  Name = CHEMBL1089538
REMARK                            x       y       z     vdW  Elec       q    Type
REMARK                         _______ _______ _______ _____ _____    ______ ____
ROOT
ATOM      1  C   LIG    1       -3.771  -0.382  -2.974  0.00  0.00    -0.267 A 
ATOM      2  C   LIG    1       -3.768   0.851  -3.555  0.00  0.00    +0.099 A 
ATOM      3 CL   LIG    1       -3.256   2.239  -2.648  0.00  0.00    -0.034 Cl
ATOM      4  C   LIG    1       -4.180   0.995  -4.892  0.00  0.00    -0.216 A 
ATOM      5  C   LIG    1       -4.246   2.185  -5.665  0.00  0.00    +0.109 A 
ATOM      6  C   LIG    1       -4.671   2.155  -6.956  0.00  0.00    +0.018 A 
ATOM      7  C   LIG    1       -5.057   0.958  -7.569  0.00  0.00    +0.331 A 
ATOM      8  O   LIG    1       -5.479   0.953  -8.861  0.00  0.00    -0.621 OA
ATOM      9  C   LIG    1       -5.006  -0.222  -6.847  0.00  0.00    -0.165 A 
ATOM     10  C   LIG    1       -4.576  -0.200  -5.538  0.00  0.00    +0.011 A 
ATOM     11  S   LIG    1       -4.355  -1.440  -4.287  0.00  0.00    +0.115 S 
ENDROOT
BRANCH   9  12
ATOM     12  N   LIG    1       -5.411  -1.499  -7.477  0.00  0.00    +0.062 N 
ATOM     13  O   LIG    1       -6.561  -1.867  -7.413  0.00  0.00    -0.160 OA
ATOM     14  O   LIG    1       -4.591  -2.175  -8.055  0.00  0.00    -0.161 OA
ENDBRANCH   9  12
BRANCH   1  15
ATOM     15  C   LIG    1       -3.385  -0.749  -1.609  0.00  0.00    +0.560 C 
ATOM     16  O   LIG    1       -3.005   0.108  -0.834  0.00  0.00    -0.473 OA
BRANCH  15  17
ATOM     17  O   LIG    1       -3.450  -2.036  -1.213  0.00  0.00    -0.346 OA
BRANCH  17  18
ATOM     18  C   LIG    1       -2.944  -2.341   0.088  0.00  0.00    +0.391 C 
ATOM     19  C   LIG    1       -1.484  -1.894   0.186  0.00  0.00    +0.082 C 
BRANCH  18  20
ATOM     20  O   LIG    1       -3.719  -1.654   1.073  0.00  0.00    -0.349 OA
BRANCH  20  21
ATOM     21  C   LIG    1       -4.969  -2.097   1.284  0.00  0.00    +0.461 C 
ATOM     22  O   LIG    1       -5.423  -2.976   0.590  0.00  0.00    -0.489 OA
BRANCH  21  24
ATOM     23  C   LIG    1       -7.176  -2.176   2.410  0.00  0.00    +0.062 C 
ATOM     24  C   LIG    1       -5.805  -1.498   2.385  0.00  0.00    +0.023 C 
ATOM     25  C   LIG    1       -5.106  -1.711   3.729  0.00  0.00    +0.058 C 
ENDBRANCH  21  24
ENDBRANCH  20  21
ENDBRANCH  18  20
ENDBRANCH  17  18
ENDBRANCH  15  17
ENDBRANCH   1  15
BRANCH   6  26
ATOM     26  O   LIG    1       -4.723   3.313  -7.668  0.00  0.00    -0.478 OA
ATOM     27  H   LIG    1       -3.906   3.519  -8.144  0.00  0.00    +0.378 HD
ENDBRANCH   6  26
TORSDOF 8
