REMARK  Name = CHEMBL1091983
REMARK                            x       y       z     vdW  Elec       q    Type
REMARK                         _______ _______ _______ _____ _____    ______ ____
ROOT
ATOM      1  C   LIG    1       -0.016   1.355   0.009  0.00  0.00    +0.109 A 
ATOM      2  C   LIG    1        1.194   2.100   0.002  0.00  0.00    -0.216 A 
ATOM      3  C   LIG    1        2.395   1.352  -0.014  0.00  0.00    +0.014 A 
ATOM      4  S   LIG    1        3.659   2.598  -0.019  0.00  0.00    +0.115 S 
ATOM      5  C   LIG    1        2.604   4.037  -0.002  0.00  0.00    -0.271 A 
ATOM      6  C   LIG    1        2.404  -0.026  -0.021  0.00  0.00    -0.164 A 
ATOM      7  C   LIG    1        1.205  -0.718  -0.014  0.00  0.00    +0.331 A 
ATOM      8  O   LIG    1        1.197  -2.077  -0.022  0.00  0.00    -0.619 OA
ATOM      9  C   LIG    1        1.353   3.497   0.007  0.00  0.00    +0.104 A 
ATOM     10 CL   LIG    1       -0.041   4.531   0.026  0.00  0.00    -0.033 Cl
ATOM     11  C   LIG    1        0.002  -0.004   0.002  0.00  0.00    +0.019 A 
ENDROOT
BRANCH   6  12
ATOM     12  N   LIG    1        3.689  -0.762  -0.038  0.00  0.00    +0.061 N 
ATOM     13  O   LIG    1        4.203  -1.057  -1.092  0.00  0.00    -0.160 OA
ATOM     14  O   LIG    1        4.223  -1.069   1.002  0.00  0.00    -0.159 OA
ENDBRANCH   6  12
BRANCH   5  15
ATOM     15  C   LIG    1        2.988   5.451   0.002  0.00  0.00    +0.568 C 
ATOM     16  O   LIG    1        2.131   6.314   0.015  0.00  0.00    -0.486 OA
BRANCH  15  17
ATOM     17  O   LIG    1        4.292   5.796  -0.009  0.00  0.00    -0.342 OA
BRANCH  17  18
ATOM     18  C   LIG    1        4.594   7.192  -0.004  0.00  0.00    +0.367 C 
BRANCH  18  19
ATOM     19  C   LIG    1        6.089   7.383  -0.018  0.00  0.00    -0.035 A 
ATOM     20  C   LIG    1        6.791   7.941  -0.991  0.00  0.00    +0.216 A 
ATOM     21  O   LIG    1        8.098   7.928  -0.631  0.00  0.00    -0.241 OA
ATOM     22  C   LIG    1        8.187   7.354   0.580  0.00  0.00    +0.573 A 
ATOM     23  O   LIG    1        9.209   7.174   1.214  0.00  0.00    -0.420 OA
ATOM     24  O   LIG    1        6.946   7.019   0.967  0.00  0.00    -0.232 OA
ENDBRANCH  18  19
ENDBRANCH  17  18
ENDBRANCH  15  17
ENDBRANCH   5  15
BRANCH  11  25
ATOM     25  O   LIG    1       -1.175  -0.685   0.010  0.00  0.00    -0.478 OA
ATOM     26  H   LIG    1       -1.525  -0.878  -0.871  0.00  0.00    +0.379 HD
ENDBRANCH  11  25
TORSDOF 6
