REMARK  Name = CHEMBL1324
REMARK                            x       y       z     vdW  Elec       q    Type
REMARK                         _______ _______ _______ _____ _____    ______ ____
ROOT
ATOM      1  C   LIG    1        0.188  -4.994   1.246  0.00  0.00    -0.146 A 
ATOM      2  C   LIG    1       -0.413  -4.503   2.410  0.00  0.00    +0.154 A 
ATOM      3  C   LIG    1       -0.293  -5.198   3.593  0.00  0.00    -0.074 A 
ATOM      4  C   LIG    1        0.424  -6.387   3.634  0.00  0.00    +0.178 A 
ATOM      5  C   LIG    1        1.026  -6.882   2.477  0.00  0.00    +0.081 A 
ATOM      6  C   LIG    1        0.905  -6.194   1.286  0.00  0.00    +0.134 A 
ENDROOT
BRANCH   3   7
ATOM      7  N   LIG    1       -0.929  -4.677   4.823  0.00  0.00    +0.035 N 
ATOM      8  O   LIG    1       -0.825  -5.286   5.862  0.00  0.00    -0.128 OA
ATOM      9  O   LIG    1       -1.553  -3.642   4.790  0.00  0.00    -0.158 OA
ENDBRANCH   3   7
BRANCH   1  10
ATOM     10  C   LIG    1        0.060  -4.251  -0.021  0.00  0.00    +0.447 C 
ATOM     11  O   LIG    1       -0.010  -4.854  -1.075  0.00  0.00    -0.432 OA
BRANCH  10  16
ATOM     12  C   LIG    1       -0.111   1.501   0.019  0.00  0.00    +0.100 C 
ATOM     13  C   LIG    1       -0.066  -0.006   0.008  0.00  0.00    -0.044 A 
ATOM     14  C   LIG    1       -0.301  -0.693  -1.169  0.00  0.00    +0.002 A 
ATOM     15  C   LIG    1       -0.262  -2.072  -1.186  0.00  0.00    +0.088 A 
ATOM     16  C   LIG    1        0.016  -2.774  -0.011  0.00  0.00    -0.177 A 
ATOM     17  C   LIG    1        0.253  -2.073   1.174  0.00  0.00    +0.053 A 
ATOM     18  C   LIG    1        0.215  -0.694   1.175  0.00  0.00    +0.006 A 
ENDBRANCH  10  16
ENDBRANCH   1  10
BRANCH   4  19
ATOM     19  O   LIG    1        0.539  -7.069   4.802  0.00  0.00    -0.458 OA
ATOM     20  H   LIG    1       -0.163  -7.716   4.951  0.00  0.00    +0.409 HD
ENDBRANCH   4  19
BRANCH   5  21
ATOM     21  O   LIG    1        1.728  -8.046   2.521  0.00  0.00    -0.469 OA
ATOM     22  H   LIG    1        1.195  -8.834   2.344  0.00  0.00    +0.400 HD
ENDBRANCH   5  21
TORSDOF 5
