REMARK  Name = CHEMBL1089503
REMARK                            x       y       z     vdW  Elec       q    Type
REMARK                         _______ _______ _______ _____ _____    ______ ____
ROOT
ATOM      1  C   LIG    1       -0.016   1.355   0.009  0.00  0.00    +0.095 A 
ATOM      2  C   LIG    1        1.194   2.099   0.002  0.00  0.00    -0.186 A 
ATOM      3  C   LIG    1        2.395   1.351  -0.014  0.00  0.00    -0.025 A 
ATOM      4  S   LIG    1        3.660   2.597  -0.020  0.00  0.00    +0.058 S 
ATOM      5  C   LIG    1        2.606   4.037  -0.002  0.00  0.00    -0.180 A 
ATOM      6  C   LIG    1        2.405  -0.027  -0.021  0.00  0.00    -0.170 A 
ATOM      7  C   LIG    1        1.206  -0.718  -0.013  0.00  0.00    +0.317 A 
ATOM      8  O   LIG    1        1.197  -2.077  -0.020  0.00  0.00    -0.667 OA
ATOM      9  C   LIG    1        1.353   3.496   0.007  0.00  0.00    -0.007 A 
ATOM     10 CL   LIG    1       -0.041   4.530   0.026  0.00  0.00    -0.060 Cl
ATOM     11  C   LIG    1        0.002  -0.004   0.002  0.00  0.00    -0.006 A 
ENDROOT
BRANCH   5  12
ATOM     12  C   LIG    1        2.990   5.447   0.002  0.00  0.00    +0.562 C 
ATOM     13  O   LIG    1        2.127   6.316   0.015  0.00  0.00    -0.656 OA
ATOM     14  O   LIG    1        4.174   5.760  -0.008  0.00  0.00    -0.683 OA
ENDBRANCH   5  12
BRANCH   6  15
ATOM     15  N   LIG    1        3.689  -0.763  -0.037  0.00  0.00    +0.072 N 
ATOM     16  O   LIG    1        4.203  -1.058  -1.091  0.00  0.00    -0.175 OA
ATOM     17  O   LIG    1        4.224  -1.069   1.003  0.00  0.00    -0.174 OA
ENDBRANCH   6  15
BRANCH  11  18
ATOM     18  O   LIG    1       -1.175  -0.685   0.010  0.00  0.00    -0.482 OA
ATOM     19  H   LIG    1       -1.525  -0.878  -0.871  0.00  0.00    +0.367 HD
ENDBRANCH  11  18
TORSDOF 3
