REMARK  Name = CHEMBL1091982
REMARK                            x       y       z     vdW  Elec       q    Type
REMARK                         _______ _______ _______ _____ _____    ______ ____
ROOT
ATOM      1  C   LIG    1        4.583   1.815   2.573  0.00  0.00    -0.269 A 
ATOM      2  C   LIG    1        4.574   1.836   3.936  0.00  0.00    +0.101 A 
ATOM      3 CL   LIG    1        4.418   0.355   4.827  0.00  0.00    -0.034 Cl
ATOM      4  C   LIG    1        4.691   3.060   4.618  0.00  0.00    -0.216 A 
ATOM      5  C   LIG    1        4.702   3.284   6.021  0.00  0.00    +0.109 A 
ATOM      6  C   LIG    1        4.824   4.541   6.525  0.00  0.00    +0.018 A 
ATOM      7  C   LIG    1        4.942   5.655   5.686  0.00  0.00    +0.331 A 
ATOM      8  O   LIG    1        5.062   6.901   6.215  0.00  0.00    -0.620 OA
ATOM      9  C   LIG    1        4.935   5.476   4.314  0.00  0.00    -0.164 A 
ATOM     10  C   LIG    1        4.812   4.205   3.795  0.00  0.00    +0.012 A 
ATOM     11  S   LIG    1        4.767   3.539   2.150  0.00  0.00    +0.116 S 
ENDROOT
BRANCH   9  12
ATOM     12  N   LIG    1        5.059   6.641   3.410  0.00  0.00    +0.061 N 
ATOM     13  O   LIG    1        4.067   7.221   3.032  0.00  0.00    -0.160 OA
ATOM     14  O   LIG    1        6.151   7.013   3.049  0.00  0.00    -0.160 OA
ENDBRANCH   9  12
BRANCH   1  15
ATOM     15  C   LIG    1        4.474   0.662   1.677  0.00  0.00    +0.559 C 
ATOM     16  O   LIG    1        4.353  -0.457   2.138  0.00  0.00    -0.477 OA
BRANCH  15  17
ATOM     17  O   LIG    1        4.509   0.840   0.340  0.00  0.00    -0.349 OA
BRANCH  17  18
ATOM     18  C   LIG    1        4.398  -0.329  -0.474  0.00  0.00    +0.483 C 
BRANCH  18  19
ATOM     19  O   LIG    1        3.042  -0.782  -0.474  0.00  0.00    -0.356 OA
BRANCH  19  20
ATOM     20  C   LIG    1        2.165  -0.079  -1.208  0.00  0.00    +0.467 C 
ATOM     21  O   LIG    1        2.536   0.888  -1.829  0.00  0.00    -0.478 OA
BRANCH  20  22
ATOM     22  C   LIG    1        0.718  -0.497  -1.257  0.00  0.00    +0.224 C 
BRANCH  22  24
ATOM     23  C   LIG    1       -0.019   1.526   0.010  0.00  0.00    +0.027 C 
ATOM     24  C   LIG    1        0.002  -0.004   0.002  0.00  0.00    -0.042 C 
ATOM     25  C   LIG    1       -1.433  -0.534   0.013  0.00  0.00    +0.037 C 
ENDBRANCH  22  24
BRANCH  22  26
ATOM     26  N   LIG    1        0.080   0.086  -2.444  0.00  0.00    -0.830 NA
ATOM     27  H   LIG    1        0.125   1.094  -2.420  0.00  0.00    +0.355 HD
ATOM     28  H   LIG    1       -0.874  -0.231  -2.535  0.00  0.00    +0.354 HD
ENDBRANCH  22  26
ENDBRANCH  20  22
ENDBRANCH  19  20
ENDBRANCH  18  19
ENDBRANCH  17  18
ENDBRANCH  15  17
ENDBRANCH   1  15
BRANCH   6  29
ATOM     29  O   LIG    1        4.830   4.720   7.873  0.00  0.00    -0.478 OA
ATOM     30  H   LIG    1        5.711   4.683   8.271  0.00  0.00    +0.378 HD
ENDBRANCH   6  29
TORSDOF 10
