REMARK  Name = CHEMBL1089504
REMARK                            x       y       z     vdW  Elec       q    Type
REMARK                         _______ _______ _______ _____ _____    ______ ____
ROOT
ATOM      1  C   LIG    1        0.659  -2.064  -1.123  0.00  0.00    -0.174 A 
ATOM      2  C   LIG    1        1.220  -2.844  -2.090  0.00  0.00    +0.027 A 
ATOM      3 CL   LIG    1        1.994  -2.109  -3.458  0.00  0.00    +0.004 Cl
ATOM      4  C   LIG    1        1.169  -4.245  -1.976  0.00  0.00    -0.083 A 
ATOM      5  C   LIG    1        1.690  -5.216  -2.873  0.00  0.00    +0.135 A 
ATOM      6  C   LIG    1        1.556  -6.544  -2.615  0.00  0.00    +0.096 A 
ATOM      7  C   LIG    1        0.904  -7.003  -1.466  0.00  0.00    +0.192 A 
ATOM      8  C   LIG    1        0.383  -6.086  -0.570  0.00  0.00    -0.013 A 
ATOM      9  C   LIG    1        0.514  -4.737  -0.823  0.00  0.00    -0.090 A 
ATOM     10  S   LIG    1        0.019  -3.263   0.034  0.00  0.00    +0.214 S 
ENDROOT
BRANCH   8  11
ATOM     11  N   LIG    1       -0.312  -6.550   0.652  0.00  0.00    +0.023 N 
ATOM     12  O   LIG    1       -1.504  -6.748   0.632  0.00  0.00    -0.110 OA
ATOM     13  O   LIG    1        0.313  -6.731   1.671  0.00  0.00    -0.125 OA
ENDBRANCH   8  11
BRANCH   1  14
ATOM     14  C   LIG    1        0.601  -0.603  -1.048  0.00  0.00    +0.546 C 
ATOM     15  O   LIG    1        1.094   0.071  -1.932  0.00  0.00    -0.459 OA
BRANCH  14  17
ATOM     16  C   LIG    1       -0.017   1.425   0.010  0.00  0.00    +0.282 C 
ATOM     17  O   LIG    1        0.002  -0.004   0.002  0.00  0.00    -0.343 OA
ENDBRANCH  14  17
ENDBRANCH   1  14
BRANCH   6  18
ATOM     18  O   LIG    1        2.067  -7.447  -3.495  0.00  0.00    -0.469 OA
ATOM     19  H   LIG    1        2.982  -7.701  -3.311  0.00  0.00    +0.401 HD
ENDBRANCH   6  18
BRANCH   7  20
ATOM     20  O   LIG    1        0.782  -8.336  -1.232  0.00  0.00    -0.467 OA
ATOM     21  H   LIG    1        1.514  -8.715  -0.726  0.00  0.00    +0.412 HD
ENDBRANCH   7  20
TORSDOF 5
