REMARK  Name = CHEMBL1091982
REMARK                            x       y       z     vdW  Elec       q    Type
REMARK                         _______ _______ _______ _____ _____    ______ ____
ROOT
ATOM      1  C   LIG    1       -6.918   0.924  -1.642  0.00  0.00    -0.180 A 
ATOM      2  C   LIG    1       -7.999   1.292  -0.897  0.00  0.00    +0.031 A 
ATOM      3 CL   LIG    1       -7.875   2.611   0.225  0.00  0.00    +0.006 Cl
ATOM      4  C   LIG    1       -9.216   0.600  -1.039  0.00  0.00    -0.085 A 
ATOM      5  C   LIG    1      -10.441   0.832  -0.359  0.00  0.00    +0.136 A 
ATOM      6  C   LIG    1      -11.535   0.066  -0.613  0.00  0.00    +0.096 A 
ATOM      7  C   LIG    1      -11.496  -0.973  -1.549  0.00  0.00    +0.193 A 
ATOM      8  C   LIG    1      -10.320  -1.228  -2.232  0.00  0.00    -0.013 A 
ATOM      9  C   LIG    1       -9.206  -0.457  -1.980  0.00  0.00    -0.089 A 
ATOM     10  S   LIG    1       -7.548  -0.434  -2.613  0.00  0.00    +0.217 S 
ENDROOT
BRANCH   8  11
ATOM     11  N   LIG    1      -10.258  -2.324  -3.226  0.00  0.00    +0.022 N 
ATOM     12  O   LIG    1       -9.941  -3.438  -2.879  0.00  0.00    -0.109 OA
ATOM     13  O   LIG    1      -10.525  -2.104  -4.385  0.00  0.00    -0.124 OA
ENDBRANCH   8  11
BRANCH   1  14
ATOM     14  C   LIG    1       -5.574   1.505  -1.647  0.00  0.00    +0.549 C 
ATOM     15  O   LIG    1       -5.311   2.439  -0.914  0.00  0.00    -0.446 OA
BRANCH  14  16
ATOM     16  O   LIG    1       -4.626   1.004  -2.467  0.00  0.00    -0.347 OA
BRANCH  16  17
ATOM     17  C   LIG    1       -3.337   1.619  -2.420  0.00  0.00    +0.488 C 
BRANCH  17  18
ATOM     18  O   LIG    1       -2.658   1.213  -1.230  0.00  0.00    -0.349 OA
BRANCH  18  19
ATOM     19  C   LIG    1       -2.162  -0.034  -1.208  0.00  0.00    +0.429 C 
ATOM     20  O   LIG    1       -2.300  -0.757  -2.167  0.00  0.00    -0.495 OA
BRANCH  19  21
ATOM     21  C   LIG    1       -1.433  -0.534   0.013  0.00  0.00    +0.224 C 
BRANCH  21  23
ATOM     22  C   LIG    1       -0.019   1.526   0.010  0.00  0.00    +0.032 C 
ATOM     23  C   LIG    1        0.002  -0.004   0.002  0.00  0.00    -0.007 C 
ATOM     24  C   LIG    1        0.742  -0.511   1.242  0.00  0.00    +0.047 C 
ENDBRANCH  21  23
BRANCH  21  25
ATOM     25  N   LIG    1       -1.413  -2.002   0.005  0.00  0.00    -0.810 NA
ATOM     26  H   LIG    1       -0.945  -2.353  -0.817  0.00  0.00    +0.354 HD
ATOM     27  H   LIG    1       -2.348  -2.377   0.077  0.00  0.00    +0.350 HD
ENDBRANCH  21  25
ENDBRANCH  19  21
ENDBRANCH  18  19
ENDBRANCH  17  18
ENDBRANCH  16  17
ENDBRANCH  14  16
ENDBRANCH   1  14
BRANCH   6  28
ATOM     28  O   LIG    1      -12.692   0.316   0.057  0.00  0.00    -0.468 OA
ATOM     29  H   LIG    1      -13.273   0.951  -0.384  0.00  0.00    +0.401 HD
ENDBRANCH   6  28
BRANCH   7  30
ATOM     30  O   LIG    1      -12.604  -1.724  -1.785  0.00  0.00    -0.467 OA
ATOM     31  H   LIG    1      -13.171  -1.379  -2.489  0.00  0.00    +0.413 HD
ENDBRANCH   7  30
TORSDOF 11
