REMARK  Name = CHEMBL166486
REMARK                            x       y       z     vdW  Elec       q    Type
REMARK                         _______ _______ _______ _____ _____    ______ ____
ROOT
ATOM      1  C   LIG    1        0.013   1.357  -0.054  0.00  0.00    +0.189 A 
ATOM      2  C   LIG    1        1.205   2.089   0.038  0.00  0.00    -0.235 A 
ATOM      3  C   LIG    1        2.429   1.415   0.157  0.00  0.00    +0.080 A 
ATOM      4  C   LIG    1        2.452   0.036   0.182  0.00  0.00    -0.009 A 
ATOM      5  C   LIG    1        1.261  -0.685   0.090  0.00  0.00    +0.308 A 
ATOM      6  O   LIG    1        1.288  -2.042   0.115  0.00  0.00    -0.596 OA
ATOM      7  C   LIG    1        0.048  -0.018  -0.028  0.00  0.00    -0.196 A 
ENDROOT
BRANCH   7   8
ATOM      8  N   LIG    1       -1.212  -0.790  -0.124  0.00  0.00    +0.068 N 
ATOM      9  O   LIG    1       -1.183  -1.999  -0.101  0.00  0.00    -0.153 OA
ATOM     10  O   LIG    1       -2.269  -0.212  -0.227  0.00  0.00    -0.244 OA
ENDBRANCH   7   8
BRANCH   2  11
ATOM     11  C   LIG    1        1.173   3.554   0.009  0.00  0.00    +0.273 C 
ATOM     12  C   LIG    1        2.241   4.256  -0.501  0.00  0.00    -0.081 C 
BRANCH  12  13
ATOM     13  C   LIG    1        2.274   5.684  -0.397  0.00  0.00    +0.277 C 
ATOM     14  N   LIG    1        2.301   6.817  -0.315  0.00  0.00    -0.429 NA
ENDBRANCH  12  13
BRANCH  12  15
ATOM     15  C   LIG    1        3.319   3.559  -1.136  0.00  0.00    +0.267 C 
ATOM     16  N   LIG    1        4.174   3.006  -1.639  0.00  0.00    -0.415 NA
ENDBRANCH  12  15
ENDBRANCH   2  11
BRANCH   4  17
ATOM     17  O   LIG    1        3.637  -0.622   0.297  0.00  0.00    -0.477 OA
ATOM     18  H   LIG    1        3.903  -0.797   1.210  0.00  0.00    +0.372 HD
ENDBRANCH   4  17
TORSDOF 5
