REMARK  Name = CHEMBL168600
REMARK                            x       y       z     vdW  Elec       q    Type
REMARK                         _______ _______ _______ _____ _____    ______ ____
ROOT
ATOM      1  C   LIG    1        3.025  -0.276  -5.321  0.00  0.00    -0.088 C 
ATOM      2  C   LIG    1        3.578   0.472  -6.302  0.00  0.00    +0.146 C 
ENDROOT
BRANCH   2   3
ATOM      3  C   LIG    1        4.231  -0.182  -7.445  0.00  0.00    -0.069 A 
ATOM      4  C   LIG    1        4.809   0.590  -8.460  0.00  0.00    +0.144 A 
ATOM      5  C   LIG    1        5.420  -0.025  -9.529  0.00  0.00    -0.067 A 
ATOM      6  C   LIG    1        5.465  -1.411  -9.604  0.00  0.00    +0.165 A 
ATOM      7  C   LIG    1        4.892  -2.188  -8.598  0.00  0.00    +0.086 A 
ATOM      8  C   LIG    1        4.282  -1.579  -7.519  0.00  0.00    +0.093 A 
BRANCH   5   9
ATOM      9  N   LIG    1        6.030   0.792 -10.601  0.00  0.00    +0.034 N 
ATOM     10  O   LIG    1        6.567   0.254 -11.541  0.00  0.00    -0.129 OA
ATOM     11  O   LIG    1        5.992   1.999 -10.538  0.00  0.00    -0.157 OA
ENDBRANCH   5   9
BRANCH   6  12
ATOM     12  O   LIG    1        6.070  -2.013 -10.661  0.00  0.00    -0.459 OA
ATOM     13  H   LIG    1        7.012  -2.185 -10.530  0.00  0.00    +0.407 HD
ENDBRANCH   6  12
BRANCH   7  14
ATOM     14  O   LIG    1        4.938  -3.545  -8.676  0.00  0.00    -0.471 OA
ATOM     15  H   LIG    1        5.718  -3.936  -8.261  0.00  0.00    +0.399 HD
ENDBRANCH   7  14
ENDBRANCH   2   3
BRANCH   1  16
ATOM     16  C   LIG    1        2.395   0.355  -4.218  0.00  0.00    +0.426 C 
ATOM     17  O   LIG    1        2.352   1.571  -4.155  0.00  0.00    -0.446 OA
BRANCH  16  20
ATOM     18  C   LIG    1        0.606  -0.608  -1.056  0.00  0.00    +0.140 A 
ATOM     19  C   LIG    1        1.171   0.159  -2.058  0.00  0.00    -0.026 A 
ATOM     20  C   LIG    1        1.792  -0.462  -3.146  0.00  0.00    -0.090 A 
ATOM     21  C   LIG    1        1.840  -1.856  -3.216  0.00  0.00    -0.049 A 
ATOM     22  C   LIG    1        1.274  -2.618  -2.212  0.00  0.00    +0.139 A 
ATOM     23  C   LIG    1        0.661  -1.997  -1.127  0.00  0.00    +0.061 A 
BRANCH  18  25
ATOM     24  C   LIG    1       -0.017   1.425   0.010  0.00  0.00    +0.249 C 
ATOM     25  O   LIG    1        0.002  -0.004   0.002  0.00  0.00    -0.299 OA
ENDBRANCH  18  25
BRANCH  22  26
ATOM     26  O   LIG    1        1.321  -3.976  -2.281  0.00  0.00    -0.299 OA
ATOM     27  C   LIG    1        1.970  -4.546  -3.419  0.00  0.00    +0.245 C 
ENDBRANCH  22  26
BRANCH  23  28
ATOM     28  O   LIG    1        0.109  -2.749  -0.138  0.00  0.00    -0.312 OA
ATOM     29  C   LIG    1       -1.262  -3.119  -0.292  0.00  0.00    +0.226 C 
ENDBRANCH  23  28
ENDBRANCH  16  20
ENDBRANCH   1  16
TORSDOF 9
