REMARK  Name = CHEMBL1091983
REMARK                            x       y       z     vdW  Elec       q    Type
REMARK                         _______ _______ _______ _____ _____    ______ ____
ROOT
ATOM      1  C   LIG    1       -0.016   1.355   0.009  0.00  0.00    +0.135 A 
ATOM      2  C   LIG    1        1.194   2.100   0.002  0.00  0.00    -0.086 A 
ATOM      3  C   LIG    1        2.395   1.352  -0.014  0.00  0.00    -0.088 A 
ATOM      4  S   LIG    1        3.659   2.598  -0.019  0.00  0.00    +0.217 S 
ATOM      5  C   LIG    1        2.604   4.037  -0.002  0.00  0.00    -0.181 A 
ATOM      6  C   LIG    1        2.404  -0.026  -0.021  0.00  0.00    -0.014 A 
ATOM      7  C   LIG    1        1.205  -0.718  -0.014  0.00  0.00    +0.196 A 
ATOM      8  C   LIG    1        1.353   3.497   0.007  0.00  0.00    +0.034 A 
ATOM      9 CL   LIG    1       -0.041   4.531   0.026  0.00  0.00    +0.006 Cl
ATOM     10  C   LIG    1        0.002  -0.004   0.002  0.00  0.00    +0.097 A 
ENDROOT
BRANCH   6  11
ATOM     11  N   LIG    1        3.689  -0.762  -0.038  0.00  0.00    +0.022 N 
ATOM     12  O   LIG    1        4.203  -1.057  -1.092  0.00  0.00    -0.110 OA
ATOM     13  O   LIG    1        4.223  -1.069   1.002  0.00  0.00    -0.123 OA
ENDBRANCH   6  11
BRANCH   5  14
ATOM     14  C   LIG    1        2.988   5.451   0.002  0.00  0.00    +0.557 C 
ATOM     15  O   LIG    1        2.131   6.314   0.015  0.00  0.00    -0.455 OA
BRANCH  14  16
ATOM     16  O   LIG    1        4.292   5.796  -0.009  0.00  0.00    -0.339 OA
BRANCH  16  17
ATOM     17  C   LIG    1        4.594   7.192  -0.004  0.00  0.00    +0.381 C 
BRANCH  17  18
ATOM     18  C   LIG    1        6.089   7.383  -0.018  0.00  0.00    -0.049 A 
ATOM     19  C   LIG    1        6.791   7.941  -0.991  0.00  0.00    +0.232 A 
ATOM     20  O   LIG    1        8.098   7.928  -0.631  0.00  0.00    -0.238 OA
ATOM     21  C   LIG    1        8.187   7.354   0.580  0.00  0.00    +0.574 A 
ATOM     22  O   LIG    1        9.209   7.174   1.214  0.00  0.00    -0.413 OA
ATOM     23  O   LIG    1        6.946   7.019   0.967  0.00  0.00    -0.234 OA
ENDBRANCH  17  18
ENDBRANCH  16  17
ENDBRANCH  14  16
ENDBRANCH   5  14
BRANCH   7  24
ATOM     24  O   LIG    1        1.197  -2.077  -0.022  0.00  0.00    -0.471 OA
ATOM     25  H   LIG    1        1.203  -2.475   0.859  0.00  0.00    +0.418 HD
ENDBRANCH   7  24
BRANCH  10  26
ATOM     26  O   LIG    1       -1.175  -0.685   0.010  0.00  0.00    -0.473 OA
ATOM     27  H   LIG    1       -1.525  -0.878  -0.871  0.00  0.00    +0.407 HD
ENDBRANCH  10  26
TORSDOF 7
