REMARK  Name = CHEMBL355736
REMARK                            x       y       z     vdW  Elec       q    Type
REMARK                         _______ _______ _______ _____ _____    ______ ____
ROOT
ATOM      1  C   LIG    1       -0.017   1.391   0.010  0.00  0.00    +0.151 A 
ATOM      2  C   LIG    1        1.184   2.101   0.002  0.00  0.00    -0.198 A 
ATOM      3  C   LIG    1        2.406   1.413  -0.014  0.00  0.00    +0.109 A 
ATOM      4  C   LIG    1        2.426   0.033  -0.022  0.00  0.00    +0.057 A 
ATOM      5  C   LIG    1        1.232  -0.686  -0.014  0.00  0.00    +0.168 A 
ATOM      6  C   LIG    1        0.002  -0.004   0.002  0.00  0.00    -0.219 A 
ENDROOT
BRANCH   2   7
ATOM      7  C   LIG    1        1.169   3.570   0.010  0.00  0.00    +0.500 C 
ATOM      8  O   LIG    1        2.213   4.188   0.003  0.00  0.00    -0.452 OA
ENDBRANCH   2   7
BRANCH   4   9
ATOM      9  O   LIG    1        3.615  -0.627  -0.038  0.00  0.00    -0.480 OA
ATOM     10  H   LIG    1        3.968  -0.824   0.841  0.00  0.00    +0.392 HD
ENDBRANCH   4   9
BRANCH   5  11
ATOM     11  O   LIG    1        1.256  -2.040  -0.022  0.00  0.00    -0.480 OA
ATOM     12  H   LIG    1        1.272  -2.439   0.859  0.00  0.00    +0.402 HD
ENDBRANCH   5  11
BRANCH   6  13
ATOM     13  C   LIG    1       -1.258  -0.758   0.011  0.00  0.00    +0.503 C 
ATOM     14  O   LIG    1       -2.318  -0.168   0.024  0.00  0.00    -0.452 OA
ENDBRANCH   6  13
TORSDOF 4
