REMARK  Name = CHEMBL1089536
REMARK                            x       y       z     vdW  Elec       q    Type
REMARK                         _______ _______ _______ _____ _____    ______ ____
ROOT
ATOM      1  C   LIG    1        5.813  -1.880   2.812  0.00  0.00    -0.173 A 
ATOM      2  C   LIG    1        6.962  -2.516   3.175  0.00  0.00    +0.027 A 
ATOM      3 CL   LIG    1        8.046  -3.115   1.958  0.00  0.00    +0.004 Cl
ATOM      4  C   LIG    1        7.268  -2.688   4.537  0.00  0.00    -0.083 A 
ATOM      5  C   LIG    1        8.406  -3.318   5.107  0.00  0.00    +0.135 A 
ATOM      6  C   LIG    1        8.553  -3.402   6.456  0.00  0.00    +0.095 A 
ATOM      7  C   LIG    1        7.596  -2.874   7.329  0.00  0.00    +0.192 A 
ATOM      8  C   LIG    1        6.474  -2.252   6.810  0.00  0.00    -0.013 A 
ATOM      9  C   LIG    1        6.317  -2.163   5.443  0.00  0.00    -0.091 A 
ATOM     10  S   LIG    1        5.075  -1.466   4.383  0.00  0.00    +0.216 S 
ENDROOT
BRANCH   8  11
ATOM     11  N   LIG    1        5.449  -1.687   7.716  0.00  0.00    +0.023 N 
ATOM     12  O   LIG    1        4.524  -2.373   8.084  0.00  0.00    -0.110 OA
ATOM     13  O   LIG    1        5.537  -0.540   8.088  0.00  0.00    -0.125 OA
ENDBRANCH   8  11
BRANCH   1  14
ATOM     14  C   LIG    1        5.310  -1.600   1.465  0.00  0.00    +0.549 C 
ATOM     15  O   LIG    1        5.946  -1.957   0.492  0.00  0.00    -0.460 OA
BRANCH  14  16
ATOM     16  O   LIG    1        4.141  -0.946   1.304  0.00  0.00    -0.336 OA
BRANCH  16  17
ATOM     17  C   LIG    1        3.711  -0.707  -0.038  0.00  0.00    +0.281 C 
BRANCH  17  21
ATOM     18  C   LIG    1       -0.017   1.378   0.010  0.00  0.00    +0.022 A 
ATOM     19  C   LIG    1        1.171   2.086   0.002  0.00  0.00    +0.005 A 
ATOM     20  C   LIG    1        2.377   1.411  -0.013  0.00  0.00    +0.032 A 
ATOM     21  C   LIG    1        2.396   0.029  -0.020  0.00  0.00    -0.104 A 
ATOM     22  C   LIG    1        1.208  -0.679  -0.012  0.00  0.00    +0.033 A 
ATOM     23  C   LIG    1        0.002  -0.004   0.002  0.00  0.00    +0.005 A 
ENDBRANCH  17  21
ENDBRANCH  16  17
ENDBRANCH  14  16
ENDBRANCH   1  14
BRANCH   6  24
ATOM     24  O   LIG    1        9.656  -4.014   6.968  0.00  0.00    -0.469 OA
ATOM     25  H   LIG    1       10.402  -3.418   7.117  0.00  0.00    +0.401 HD
ENDBRANCH   6  24
BRANCH   7  26
ATOM     26  O   LIG    1        7.766  -2.972   8.674  0.00  0.00    -0.467 OA
ATOM     27  H   LIG    1        8.244  -2.227   9.064  0.00  0.00    +0.412 HD
ENDBRANCH   7  26
TORSDOF 7
