REMARK  Name = CHEMBL1091981
REMARK                            x       y       z     vdW  Elec       q    Type
REMARK                         _______ _______ _______ _____ _____    ______ ____
ROOT
ATOM      1  C   LIG    1       -0.429  -4.186   2.994  0.00  0.00    -0.178 A 
ATOM      2  C   LIG    1        0.721  -3.740   3.573  0.00  0.00    +0.028 A 
ATOM      3 CL   LIG    1        1.833  -2.766   2.663  0.00  0.00    +0.005 Cl
ATOM      4  C   LIG    1        1.006  -4.071   4.910  0.00  0.00    -0.084 A 
ATOM      5  C   LIG    1        2.141  -3.704   5.681  0.00  0.00    +0.135 A 
ATOM      6  C   LIG    1        2.266  -4.110   6.973  0.00  0.00    +0.095 A 
ATOM      7  C   LIG    1        1.288  -4.899   7.588  0.00  0.00    +0.192 A 
ATOM      8  C   LIG    1        0.168  -5.276   6.868  0.00  0.00    -0.013 A 
ATOM      9  C   LIG    1        0.033  -4.869   5.558  0.00  0.00    -0.091 A 
ATOM     10  S   LIG    1       -1.205  -5.109   4.309  0.00  0.00    +0.217 S 
ENDROOT
BRANCH   8  11
ATOM     11  N   LIG    1       -0.878  -6.111   7.500  0.00  0.00    +0.022 N 
ATOM     12  O   LIG    1       -0.809  -7.316   7.438  0.00  0.00    -0.109 OA
ATOM     13  O   LIG    1       -1.802  -5.587   8.078  0.00  0.00    -0.124 OA
ENDBRANCH   8  11
BRANCH   1  14
ATOM     14  C   LIG    1       -0.911  -3.959   1.629  0.00  0.00    +0.549 C 
ATOM     15  O   LIG    1       -0.249  -3.298   0.852  0.00  0.00    -0.442 OA
BRANCH  14  16
ATOM     16  O   LIG    1       -2.090  -4.483   1.235  0.00  0.00    -0.343 OA
BRANCH  16  17
ATOM     17  C   LIG    1       -2.557  -4.122  -0.067  0.00  0.00    +0.401 C 
ATOM     18  C   LIG    1       -2.664  -2.599  -0.166  0.00  0.00    +0.088 C 
BRANCH  17  19
ATOM     19  O   LIG    1       -1.639  -4.601  -1.052  0.00  0.00    -0.351 OA
BRANCH  19  20
ATOM     20  C   LIG    1       -1.605  -5.926  -1.260  0.00  0.00    +0.458 C 
ATOM     21  O   LIG    1       -2.261  -6.664  -0.564  0.00  0.00    -0.490 OA
BRANCH  20  22
ATOM     22  C   LIG    1       -0.747  -6.494  -2.361  0.00  0.00    +0.103 C 
BRANCH  22  24
ATOM     23  C   LIG    1       -0.017  -8.594  -3.502  0.00  0.00    +0.025 C 
ATOM     24  C   LIG    1       -0.888  -8.017  -2.384  0.00  0.00    +0.030 C 
ENDBRANCH  22  24
ENDBRANCH  20  22
ENDBRANCH  19  20
ENDBRANCH  17  19
ENDBRANCH  16  17
ENDBRANCH  14  16
ENDBRANCH   1  14
BRANCH   6  25
ATOM     25  O   LIG    1        3.367  -3.741   7.683  0.00  0.00    -0.468 OA
ATOM     26  H   LIG    1        3.267  -2.905   8.157  0.00  0.00    +0.401 HD
ENDBRANCH   6  25
BRANCH   7  27
ATOM     27  O   LIG    1        1.437  -5.292   8.881  0.00  0.00    -0.467 OA
ATOM     28  H   LIG    1        1.062  -4.676   9.525  0.00  0.00    +0.412 HD
ENDBRANCH   7  27
TORSDOF 10
