REMARK  Name = CHEMBL265218
REMARK                            x       y       z     vdW  Elec       q    Type
REMARK                         _______ _______ _______ _____ _____    ______ ____
ROOT
ATOM      1  C   LIG    1       -1.294  -0.772   0.225  0.00  0.00    +0.095 C 
ATOM      2  C   LIG    1       -1.268  -2.114   0.072  0.00  0.00    -0.157 C 
ATOM      3  C   LIG    1       -2.433  -2.974  -0.117  0.00  0.00    +0.424 C 
ATOM      4  C   LIG    1       -2.009  -4.365  -0.246  0.00  0.00    -0.275 C 
ATOM      5  C   LIG    1       -0.505  -4.420  -0.137  0.00  0.00    +0.100 C 
ATOM      6  C   LIG    1       -2.826  -5.425  -0.432  0.00  0.00    +0.192 C 
ATOM      7  O   LIG    1       -3.588  -2.587  -0.161  0.00  0.00    -0.461 OA
ATOM      8  C   LIG    1       -0.029  -2.975   0.061  0.00  0.00    +0.085 C 
ENDROOT
BRANCH   6   9
ATOM      9  C   LIG    1       -2.277  -6.788  -0.412  0.00  0.00    -0.212 A 
ATOM     10  C   LIG    1       -0.892  -6.987  -0.369  0.00  0.00    +0.079 A 
ATOM     11  C   LIG    1       -0.382  -8.270  -0.350  0.00  0.00    -0.022 A 
ATOM     12  C   LIG    1       -1.247  -9.364  -0.374  0.00  0.00    +0.302 A 
ATOM     13  O   LIG    1       -0.743 -10.625  -0.355  0.00  0.00    -0.607 OA
ATOM     14  C   LIG    1       -2.621  -9.168  -0.416  0.00  0.00    -0.196 A 
ATOM     15  C   LIG    1       -3.138  -7.891  -0.429  0.00  0.00    +0.164 A 
BRANCH  14  16
ATOM     16  N   LIG    1       -3.532 -10.334  -0.440  0.00  0.00    +0.069 N 
ATOM     17  O   LIG    1       -3.080 -11.455  -0.423  0.00  0.00    -0.155 OA
ATOM     18  O   LIG    1       -4.729 -10.165  -0.477  0.00  0.00    -0.249 OA
ENDBRANCH  14  16
BRANCH  11  19
ATOM     19  O   LIG    1        0.963  -8.467  -0.310  0.00  0.00    -0.480 OA
ATOM     20  H   LIG    1        1.325  -8.521   0.585  0.00  0.00    +0.369 HD
ENDBRANCH  11  19
ENDBRANCH   6   9
BRANCH   1  26
ATOM     21  C   LIG    1       -0.062   1.387   0.247  0.00  0.00    +0.128 A 
ATOM     22  C   LIG    1        1.119   2.097   0.285  0.00  0.00    -0.066 A 
ATOM     23  C   LIG    1        2.334   1.428   0.339  0.00  0.00    +0.149 A 
ATOM     24  C   LIG    1        2.367   0.034   0.356  0.00  0.00    +0.088 A 
ATOM     25  C   LIG    1        1.190  -0.686   0.318  0.00  0.00    +0.080 A 
ATOM     26  C   LIG    1       -0.037  -0.012   0.264  0.00  0.00    -0.045 A 
BRANCH  22  27
ATOM     27  N   LIG    1        1.091   3.577   0.267  0.00  0.00    +0.037 N 
ATOM     28  O   LIG    1        2.126   4.201   0.300  0.00  0.00    -0.136 OA
ATOM     29  O   LIG    1        0.034   4.161   0.219  0.00  0.00    -0.164 OA
ENDBRANCH  22  27
BRANCH  23  30
ATOM     30  O   LIG    1        3.494   2.133   0.376  0.00  0.00    -0.462 OA
ATOM     31  H   LIG    1        3.796   2.348   1.269  0.00  0.00    +0.402 HD
ENDBRANCH  23  30
BRANCH  24  32
ATOM     32  O   LIG    1        3.560  -0.617   0.409  0.00  0.00    -0.472 OA
ATOM     33  H   LIG    1        3.871  -0.796   1.307  0.00  0.00    +0.396 HD
ENDBRANCH  24  32
ENDBRANCH   1  26
TORSDOF 7
