REMARK  Name = CHEMBL169033
REMARK                            x       y       z     vdW  Elec       q    Type
REMARK                         _______ _______ _______ _____ _____    ______ ____
ROOT
ATOM      1  C   LIG    1       -0.000  -0.732  -1.274  0.00  0.00    -0.296 A 
ATOM      2  C   LIG    1        0.013  -2.131  -1.284  0.00  0.00    +0.196 A 
ATOM      3  C   LIG    1        0.010  -2.811  -2.481  0.00  0.00    -0.204 A 
ATOM      4  C   LIG    1       -0.005  -2.111  -3.681  0.00  0.00    +0.309 A 
ATOM      5  O   LIG    1       -0.008  -2.787  -4.859  0.00  0.00    -0.606 OA
ATOM      6  C   LIG    1       -0.018  -0.716  -3.680  0.00  0.00    -0.027 A 
ATOM      7  C   LIG    1       -0.021  -0.027  -2.484  0.00  0.00    +0.097 A 
ENDROOT
BRANCH   1   9
ATOM      8  C   LIG    1       -0.018   1.503   0.010  0.00  0.00    +0.058 C 
ATOM      9  C   LIG    1        0.002  -0.004   0.002  0.00  0.00    +0.407 C 
ATOM     10  O   LIG    1        0.020  -0.616   1.049  0.00  0.00    -0.490 OA
ENDBRANCH   1   9
BRANCH   3  11
ATOM     11  N   LIG    1        0.025  -4.291  -2.490  0.00  0.00    +0.069 N 
ATOM     12  O   LIG    1        0.023  -4.889  -3.541  0.00  0.00    -0.155 OA
ATOM     13  O   LIG    1        0.039  -4.902  -1.447  0.00  0.00    -0.247 OA
ENDBRANCH   3  11
BRANCH   6  14
ATOM     14  O   LIG    1       -0.033  -0.035  -4.857  0.00  0.00    -0.480 OA
ATOM     15  H   LIG    1       -0.920   0.154  -5.191  0.00  0.00    +0.369 HD
ENDBRANCH   6  14
TORSDOF 3
