MODEL        1
REMARK  Name = CHEMBL168389
REMARK  8 active torsions:
REMARK  status: ('A' for Active; 'I' for Inactive)
REMARK    1  A    between atoms: C1_1  and  N1_2
REMARK    2  A    between atoms: N1_2  and  C2_3
REMARK    3  A    between atoms: C3_4  and  C4_6
REMARK    4  A    between atoms: C4_6  and  C12_19
REMARK    5  A    between atoms: C5_7  and  C6_8
REMARK    6  A    between atoms: C8_10  and  N2_16
REMARK    7  A    between atoms: C9_11  and  O3_15
REMARK    8  A    between atoms: C10_12  and  O2_14
REMARK                            x       y       z     vdW  Elec       q    Type
REMARK                         _______ _______ _______ _____ _____    ______ ____
ROOT
ATOM      1  C6  <0> A   1       0.148  -4.284  -2.385  0.00  0.00    -0.090 A 
ATOM      2  C7  <0> A   1       0.855  -4.919  -3.417  0.00  0.00    +0.159 A 
ATOM      3  C8  <0> A   1       0.976  -6.290  -3.424  0.00  0.00    -0.068 A 
ATOM      4  C9  <0> A   1       0.399  -7.048  -2.412  0.00  0.00    +0.173 A 
ATOM      5  C10 <0> A   1      -0.307  -6.424  -1.382  0.00  0.00    +0.090 A 
ATOM      6  C11 <0> A   1      -0.428  -5.050  -1.362  0.00  0.00    +0.095 A 
ENDROOT
BRANCH   3   7
ATOM      7  N2  <0> A   1       1.722  -6.959  -4.513  0.00  0.00    +0.034 N 
ATOM      8  O4  <0> A   1       2.225  -6.301  -5.394  0.00  0.00    -0.154 OA
ATOM      9  O5  <0> A   1       1.829  -8.163  -4.521  0.00  0.00    -0.128 OA
ENDBRANCH   3   7
BRANCH   1  11
ATOM     10  C4  <0> A   1       0.016  -2.143  -1.177  0.00  0.00    -0.111 C 
ATOM     11  C5  <0> A   1       0.018  -2.825  -2.374  0.00  0.00    +0.245 C 
BRANCH  10  15
ATOM     12  C1  <0> A   1      -0.579   1.399   0.045  0.00  0.00    +0.303 C 
ATOM     13  N1  <0> A   1      -0.283  -0.035   0.020  0.00  0.00    -0.612 N 
ATOM     14  C2  <0> A   1       0.011  -0.745   1.267  0.00  0.00    +0.284 C 
ATOM     15  C3  <0> A   1      -0.281  -0.702  -1.151  0.00  0.00    +0.571 C 
ATOM     16  O1  <0> A   1      -0.525  -0.113  -2.187  0.00  0.00    -0.519 OA
ENDBRANCH  10  15
BRANCH  10  17
ATOM     17  C12 <0> A   1       0.304  -2.836   0.043  0.00  0.00    +0.249 C 
ATOM     18  N3  <0> A   1       0.531  -3.386   1.010  0.00  0.00    -0.402 NA
ENDBRANCH  10  17
ENDBRANCH   1  11
BRANCH   5  19
ATOM     19  O2  <0> A   1      -0.870  -7.171  -0.395  0.00  0.00    -0.469 OA
ATOM     20  H10 <0> A   1      -0.289  -7.324   0.362  0.00  0.00    +0.400 HD
ENDBRANCH   5  19
BRANCH   4  21
ATOM     21  O3  <0> A   1       0.522  -8.400  -2.426  0.00  0.00    -0.458 OA
ATOM     22  H11 <0> A   1       1.302  -8.729  -1.958  0.00  0.00    +0.408 HD
ENDBRANCH   4  21
TORSDOF 6
ENDMDL
MODEL        2
REMARK  Name = CHEMBL168389
REMARK  7 active torsions:
REMARK  status: ('A' for Active; 'I' for Inactive)
REMARK    1  A    between atoms: C1_1  and  N1_2
REMARK    2  A    between atoms: N1_2  and  C2_3
REMARK    3  A    between atoms: C3_4  and  C4_6
REMARK    4  A    between atoms: C4_6  and  C12_19
REMARK    5  A    between atoms: C5_7  and  C6_8
REMARK    6  A    between atoms: C8_10  and  N2_16
REMARK    7  A    between atoms: C10_12  and  O2_14
REMARK                            x       y       z     vdW  Elec       q    Type
REMARK                         _______ _______ _______ _____ _____    ______ ____
ROOT
ATOM      1  C6  <0> A   1      -0.866  -3.799  -2.794  0.00  0.00    -0.239 A 
ATOM      2  C7  <0> A   1      -0.309  -4.445  -3.907  0.00  0.00    +0.185 A 
ATOM      3  C8  <0> A   1      -0.492  -5.798  -4.079  0.00  0.00    -0.196 A 
ATOM      4  C9  <0> A   1      -1.229  -6.527  -3.153  0.00  0.00    +0.308 A 
ATOM      5  C10 <0> A   1      -1.787  -5.892  -2.043  0.00  0.00    -0.012 A 
ATOM      6  C11 <0> A   1      -1.604  -4.537  -1.858  0.00  0.00    +0.081 A 
ATOM      7  O3  <0> A   1      -1.407  -7.861  -3.330  0.00  0.00    -0.598 OA
ENDROOT
BRANCH   3   8
ATOM      8  N2  <0> A   1       0.096  -6.479  -5.254  0.00  0.00    +0.068 N 
ATOM      9  O4  <0> A   1       0.737  -5.846  -6.061  0.00  0.00    -0.245 OA
ATOM     10  O5  <0> A   1      -0.064  -7.667  -5.407  0.00  0.00    -0.153 OA
ENDBRANCH   3   8
BRANCH   1  12
ATOM     11  C4  <0> A   1      -0.594  -1.834  -1.335  0.00  0.00    -0.203 C 
ATOM     12  C5  <0> A   1      -0.672  -2.359  -2.607  0.00  0.00    +0.286 C 
BRANCH  11  16
ATOM     13  C1  <0> A   1      -0.416   1.584   0.297  0.00  0.00    +0.289 C 
ATOM     14  N1  <0> A   1      -0.325   0.138   0.079  0.00  0.00    -0.622 N 
ATOM     15  C2  <0> A   1       0.035  -0.749   1.188  0.00  0.00    +0.280 C 
ATOM     16  C3  <0> A   1      -0.571  -0.376  -1.142  0.00  0.00    +0.583 C 
ATOM     17  O1  <0> A   1      -0.775   0.366  -2.084  0.00  0.00    -0.539 OA
ENDBRANCH  11  16
BRANCH  11  18
ATOM     18  C12 <0> A   1      -0.536  -2.708  -0.202  0.00  0.00    +0.276 C 
ATOM     19  N3  <0> A   1      -0.490  -3.401   0.697  0.00  0.00    -0.443 NA
ENDBRANCH  11  18
ENDBRANCH   1  12
BRANCH   5  20
ATOM     20  O2  <0> A   1      -2.508  -6.610  -1.141  0.00  0.00    -0.479 OA
ATOM     21  H10 <0> A   1      -1.980  -6.977  -0.419  0.00  0.00    +0.372 HD
ENDBRANCH   5  20
TORSDOF 5
ENDMDL
MODEL        3
REMARK  Name = CHEMBL1091982
REMARK  12 active torsions:
REMARK  status: ('A' for Active; 'I' for Inactive)
REMARK    1  A    between atoms: C1_1  and  C2_2
REMARK    2  A    between atoms: C2_2  and  C3_3
REMARK    3  A    between atoms: C2_2  and  C4_4
REMARK    4  A    between atoms: C4_4  and  C5_5
REMARK    5  A    between atoms: C4_4  and  N2_27
REMARK    6  A    between atoms: C5_5  and  O2_7
REMARK    7  A    between atoms: O2_7  and  C6_8
REMARK    8  A    between atoms: C6_8  and  O3_9
REMARK    9  A    between atoms: O3_9  and  C7_10
REMARK   10  A    between atoms: C7_10  and  C8_12
REMARK   11  A    between atoms: C12_16  and  O8_25
REMARK   12  A    between atoms: C14_18  and  N1_21
REMARK                            x       y       z     vdW  Elec       q    Type
REMARK                         _______ _______ _______ _____ _____    ______ ____
ROOT
ATOM      1  C8  <0> A   1       4.583   1.815   2.573  0.00  0.00    -0.269 C 
ATOM      2  C9  <0> A   1       4.574   1.836   3.936  0.00  0.00    +0.101 C 
ATOM      3  C10 <0> A   1       4.691   3.060   4.618  0.00  0.00    -0.216 A 
ATOM      4  C11 <0> A   1       4.702   3.284   6.021  0.00  0.00    +0.109 A 
ATOM      5  C12 <0> A   1       4.824   4.541   6.525  0.00  0.00    +0.018 A 
ATOM      6  C13 <0> A   1       4.942   5.655   5.686  0.00  0.00    +0.331 A 
ATOM      7  C14 <0> A   1       4.935   5.476   4.314  0.00  0.00    -0.164 A 
ATOM      8  C15 <0> A   1       4.812   4.205   3.795  0.00  0.00    +0.012 A 
ATOM      9  S1  <0> A   1       4.767   3.539   2.150  0.00  0.00    +0.116 S 
ATOM     10  O7  <0> A   1       5.062   6.901   6.215  0.00  0.00    -0.620 OA
ATOM     11 Cl1  <0> A   1       4.418   0.355   4.827  0.00  0.00    -0.034 Cl
ENDROOT
BRANCH   7  12
ATOM     12  N1  <0> A   1       5.059   6.641   3.410  0.00  0.00    +0.061 N 
ATOM     13  O5  <0> A   1       6.151   7.013   3.049  0.00  0.00    -0.160 OA
ATOM     14  O6  <0> A   1       4.067   7.221   3.032  0.00  0.00    -0.160 OA
ENDBRANCH   7  12
BRANCH   1  15
ATOM     15  C7  <0> A   1       4.474   0.662   1.677  0.00  0.00    +0.559 C 
ATOM     16  O4  <0> A   1       4.353  -0.457   2.138  0.00  0.00    -0.477 OA
BRANCH  15  17
ATOM     17  O3  <0> A   1       4.509   0.840   0.340  0.00  0.00    -0.349 OA
BRANCH  17  18
ATOM     18  C6  <0> A   1       4.398  -0.329  -0.474  0.00  0.00    +0.483 C 
BRANCH  18  19
ATOM     19  O2  <0> A   1       3.042  -0.782  -0.474  0.00  0.00    -0.356 OA
BRANCH  19  20
ATOM     20  C5  <0> A   1       2.165  -0.079  -1.208  0.00  0.00    +0.467 C 
ATOM     21  O1  <0> A   1       2.536   0.888  -1.829  0.00  0.00    -0.478 OA
BRANCH  20  22
ATOM     22  C4  <0> A   1       0.718  -0.497  -1.257  0.00  0.00    +0.224 C 
BRANCH  22  24
ATOM     23  C1  <0> A   1      -0.019   1.526   0.010  0.00  0.00    +0.027 C 
ATOM     24  C2  <0> A   1       0.002  -0.004   0.002  0.00  0.00    -0.042 C 
ATOM     25  C3  <0> A   1      -1.433  -0.534   0.013  0.00  0.00    +0.037 C 
ENDBRANCH  22  24
BRANCH  22  26
ATOM     26  N2  <0> A   1       0.080   0.086  -2.444  0.00  0.00    -0.830 NA
ATOM     27  H13 <0> A   1      -0.874  -0.231  -2.535  0.00  0.00    +0.354 HD
ATOM     28  H14 <0> A   1       0.125   1.094  -2.420  0.00  0.00    +0.355 HD
ENDBRANCH  22  26
ENDBRANCH  20  22
ENDBRANCH  19  20
ENDBRANCH  18  19
ENDBRANCH  17  18
ENDBRANCH  15  17
ENDBRANCH   1  15
BRANCH   5  29
ATOM     29  O8  <0> A   1       4.830   4.720   7.873  0.00  0.00    -0.478 OA
ATOM     30  H12 <0> A   1       5.711   4.683   8.271  0.00  0.00    +0.378 HD
ENDBRANCH   5  29
TORSDOF 10
ENDMDL
MODEL        4
REMARK  Name = CHEMBL1091982
REMARK  12 active torsions:
REMARK  status: ('A' for Active; 'I' for Inactive)
REMARK    1  A    between atoms: C1_1  and  C2_2
REMARK    2  A    between atoms: C2_2  and  C3_3
REMARK    3  A    between atoms: C2_2  and  C4_4
REMARK    4  A    between atoms: C4_4  and  C5_5
REMARK    5  A    between atoms: C4_4  and  N2_27
REMARK    6  A    between atoms: C5_5  and  O2_7
REMARK    7  A    between atoms: O2_7  and  C6_8
REMARK    8  A    between atoms: C6_8  and  O3_9
REMARK    9  A    between atoms: O3_9  and  C7_10
REMARK   10  A    between atoms: C7_10  and  C8_12
REMARK   11  A    between atoms: C12_16  and  O8_25
REMARK   12  A    between atoms: C14_18  and  N1_21
REMARK                            x       y       z     vdW  Elec       q    Type
REMARK                         _______ _______ _______ _____ _____    ______ ____
ROOT
ATOM      1  C8  <0> A   1       4.583   1.815   2.573  0.00  0.00    -0.290 C 
ATOM      2  C9  <0> A   1       4.574   1.836   3.936  0.00  0.00    +0.113 C 
ATOM      3  C10 <0> A   1       4.691   3.060   4.618  0.00  0.00    -0.220 A 
ATOM      4  C11 <0> A   1       4.702   3.284   6.021  0.00  0.00    +0.107 A 
ATOM      5  C12 <0> A   1       4.824   4.541   6.525  0.00  0.00    +0.026 A 
ATOM      6  C13 <0> A   1       4.942   5.655   5.686  0.00  0.00    +0.332 A 
ATOM      7  C14 <0> A   1       4.935   5.476   4.314  0.00  0.00    -0.162 A 
ATOM      8  C15 <0> A   1       4.812   4.205   3.795  0.00  0.00    +0.019 A 
ATOM      9  S1  <0> A   1       4.767   3.539   2.150  0.00  0.00    +0.107 S 
ATOM     10  O7  <0> A   1       5.062   6.901   6.215  0.00  0.00    -0.606 OA
ATOM     11 Cl1  <0> A   1       4.418   0.355   4.827  0.00  0.00    -0.030 Cl
ENDROOT
BRANCH   7  12
ATOM     12  N1  <0> A   1       5.059   6.641   3.410  0.00  0.00    +0.059 N 
ATOM     13  O5  <0> A   1       6.151   7.013   3.049  0.00  0.00    -0.156 OA
ATOM     14  O6  <0> A   1       4.067   7.221   3.032  0.00  0.00    -0.159 OA
ENDBRANCH   7  12
BRANCH   1  15
ATOM     15  C7  <0> A   1       4.474   0.662   1.677  0.00  0.00    +0.561 C 
ATOM     16  O4  <0> A   1       4.353  -0.457   2.138  0.00  0.00    -0.477 OA
BRANCH  15  17
ATOM     17  O3  <0> A   1       4.509   0.840   0.340  0.00  0.00    -0.347 OA
BRANCH  17  18
ATOM     18  C6  <0> A   1       4.398  -0.329  -0.474  0.00  0.00    +0.507 C 
BRANCH  18  19
ATOM     19  O2  <0> A   1       3.042  -0.782  -0.474  0.00  0.00    -0.334 OA
BRANCH  19  20
ATOM     20  C5  <0> A   1       2.165  -0.079  -1.208  0.00  0.00    +0.454 C 
ATOM     21  O1  <0> A   1       2.536   0.888  -1.829  0.00  0.00    -0.469 OA
BRANCH  20  22
ATOM     22  C4  <0> A   1       0.718  -0.497  -1.257  0.00  0.00    +0.223 C 
BRANCH  22  23
ATOM     23  N2  <0> A   1       0.080   0.086  -2.444  0.00  0.00    -0.625 N 
ATOM     24  H13 <0> A   1       0.552  -0.239  -3.274  0.00  0.00    +0.441 HD
ATOM     25  H14 <0> A   1      -0.889  -0.194  -2.477  0.00  0.00    +0.445 HD
ATOM     26  H15 <0> A   1       0.138   1.092  -2.397  0.00  0.00    +0.442 HD
ENDBRANCH  22  23
BRANCH  22  28
ATOM     27  C1  <0> A   1      -0.019   1.526   0.010  0.00  0.00    +0.051 C 
ATOM     28  C2  <0> A   1       0.002  -0.004   0.002  0.00  0.00    +0.018 C 
ATOM     29  C3  <0> A   1      -1.433  -0.534   0.013  0.00  0.00    +0.064 C 
ENDBRANCH  22  28
ENDBRANCH  20  22
ENDBRANCH  19  20
ENDBRANCH  18  19
ENDBRANCH  17  18
ENDBRANCH  15  17
ENDBRANCH   1  15
BRANCH   5  30
ATOM     30  O8  <0> A   1       4.830   4.720   7.873  0.00  0.00    -0.477 OA
ATOM     31  H12 <0> A   1       5.711   4.683   8.271  0.00  0.00    +0.383 HD
ENDBRANCH   5  30
TORSDOF 10
ENDMDL
MODEL        5
REMARK  Name = CHEMBL1091982
REMARK  13 active torsions:
REMARK  status: ('A' for Active; 'I' for Inactive)
REMARK    1  A    between atoms: C1_1  and  C2_2
REMARK    2  A    between atoms: C2_2  and  C3_3
REMARK    3  A    between atoms: C2_2  and  C4_4
REMARK    4  A    between atoms: C4_4  and  C5_5
REMARK    5  A    between atoms: C4_4  and  N2_27
REMARK    6  A    between atoms: C5_5  and  O2_7
REMARK    7  A    between atoms: O2_7  and  C6_8
REMARK    8  A    between atoms: C6_8  and  O3_9
REMARK    9  A    between atoms: O3_9  and  C7_10
REMARK   10  A    between atoms: C7_10  and  C8_12
REMARK   11  A    between atoms: C12_16  and  O8_25
REMARK   12  A    between atoms: C13_17  and  O7_24
REMARK   13  A    between atoms: C14_18  and  N1_21
REMARK                            x       y       z     vdW  Elec       q    Type
REMARK                         _______ _______ _______ _____ _____    ______ ____
ROOT
ATOM      1  C8  <0> A   1      -0.107   1.795  -5.257  0.00  0.00    -0.179 C 
ATOM      2  C9  <0> A   1       1.077   1.843  -5.930  0.00  0.00    +0.030 C 
ATOM      3  C10 <0> A   1       1.579   3.079  -6.378  0.00  0.00    -0.085 A 
ATOM      4  C11 <0> A   1       2.782   3.330  -7.089  0.00  0.00    +0.136 A 
ATOM      5  C12 <0> A   1       3.126   4.595  -7.450  0.00  0.00    +0.096 A 
ATOM      6  C13 <0> A   1       2.313   5.690  -7.138  0.00  0.00    +0.193 A 
ATOM      7  C14 <0> A   1       1.133   5.483  -6.445  0.00  0.00    -0.013 A 
ATOM      8  C15 <0> A   1       0.777   4.204  -6.075  0.00  0.00    -0.090 A 
ATOM      9  S1  <0> A   1      -0.608   3.506  -5.211  0.00  0.00    +0.218 S 
ATOM     10 Cl1  <0> A   1       1.964   0.382  -6.236  0.00  0.00    +0.006 Cl
ENDROOT
BRANCH   7  11
ATOM     11  N1  <0> A   1       0.259   6.628  -6.104  0.00  0.00    +0.022 N 
ATOM     12  O5  <0> A   1      -0.609   6.976  -6.871  0.00  0.00    -0.124 OA
ATOM     13  O6  <0> A   1       0.412   7.216  -5.059  0.00  0.00    -0.109 OA
ENDBRANCH   7  11
BRANCH   1  14
ATOM     14  C7  <0> A   1      -0.799   0.625  -4.711  0.00  0.00    +0.549 C 
ATOM     15  O4  <0> A   1      -0.312  -0.482  -4.832  0.00  0.00    -0.446 OA
BRANCH  14  16
ATOM     16  O3  <0> A   1      -1.978   0.777  -4.073  0.00  0.00    -0.346 OA
BRANCH  16  17
ATOM     17  C6  <0> A   1      -2.598  -0.407  -3.566  0.00  0.00    +0.497 C 
BRANCH  17  18
ATOM     18  O2  <0> A   1      -1.910  -0.839  -2.390  0.00  0.00    -0.354 OA
BRANCH  18  19
ATOM     19  C5  <0> A   1      -2.125  -0.137  -1.266  0.00  0.00    +0.468 C 
ATOM     20  O1  <0> A   1      -2.872   0.812  -1.280  0.00  0.00    -0.477 OA
BRANCH  19  21
ATOM     21  C4  <0> A   1      -1.433  -0.534   0.013  0.00  0.00    +0.226 C 
BRANCH  21  23
ATOM     22  C1  <0> A   1      -0.019   1.526   0.010  0.00  0.00    +0.025 C 
ATOM     23  C2  <0> A   1       0.002  -0.004   0.002  0.00  0.00    -0.043 C 
ATOM     24  C3  <0> A   1       0.742  -0.511   1.242  0.00  0.00    +0.040 C 
ENDBRANCH  21  23
BRANCH  21  25
ATOM     25  N2  <0> A   1      -2.157   0.036   1.157  0.00  0.00    -0.829 NA
ATOM     26  H14 <0> A   1      -1.751  -0.268   2.030  0.00  0.00    +0.357 HD
ATOM     27  H15 <0> A   1      -2.184   1.043   1.103  0.00  0.00    +0.355 HD
ENDBRANCH  21  25
ENDBRANCH  19  21
ENDBRANCH  18  19
ENDBRANCH  17  18
ENDBRANCH  16  17
ENDBRANCH  14  16
ENDBRANCH   1  14
BRANCH   6  28
ATOM     28  O7  <0> A   1       2.680   6.945  -7.510  0.00  0.00    -0.467 OA
ATOM     29  H12 <0> A   1       2.355   7.207  -8.383  0.00  0.00    +0.413 HD
ENDBRANCH   6  28
BRANCH   5  30
ATOM     30  O8  <0> A   1       4.286   4.800  -8.131  0.00  0.00    -0.468 OA
ATOM     31  H13 <0> A   1       4.191   4.758  -9.092  0.00  0.00    +0.401 HD
ENDBRANCH   5  30
TORSDOF 11
ENDMDL
MODEL        6
REMARK  Name = CHEMBL1091982
REMARK  12 active torsions:
REMARK  status: ('A' for Active; 'I' for Inactive)
REMARK    1  A    between atoms: C1_1  and  C2_2
REMARK    2  A    between atoms: C2_2  and  C3_3
REMARK    3  A    between atoms: C2_2  and  C4_4
REMARK    4  A    between atoms: C4_4  and  C5_5
REMARK    5  A    between atoms: C4_4  and  N2_27
REMARK    6  A    between atoms: C5_5  and  O2_7
REMARK    7  A    between atoms: O2_7  and  C6_8
REMARK    8  A    between atoms: C6_8  and  O3_9
REMARK    9  A    between atoms: O3_9  and  C7_10
REMARK   10  A    between atoms: C7_10  and  C8_12
REMARK   11  A    between atoms: C12_16  and  O8_25
REMARK   12  A    between atoms: C14_18  and  N1_21
REMARK                            x       y       z     vdW  Elec       q    Type
REMARK                         _______ _______ _______ _____ _____    ______ ____
ROOT
ATOM      1  C8  <0> A   1       4.869   1.103  -5.150  0.00  0.00    -0.270 C 
ATOM      2  C9  <0> A   1       4.759   1.496  -6.450  0.00  0.00    +0.102 C 
ATOM      3  C10 <0> A   1       5.501   0.835  -7.446  0.00  0.00    -0.216 A 
ATOM      4  C11 <0> A   1       5.520   1.095  -8.842  0.00  0.00    +0.109 A 
ATOM      5  C12 <0> A   1       6.299   0.358  -9.678  0.00  0.00    +0.019 A 
ATOM      6  C13 <0> A   1       7.107  -0.678  -9.197  0.00  0.00    +0.331 A 
ATOM      7  C14 <0> A   1       7.114  -0.961  -7.843  0.00  0.00    -0.164 A 
ATOM      8  C15 <0> A   1       6.327  -0.219  -6.989  0.00  0.00    +0.013 A 
ATOM      9  S1  <0> A   1       6.046  -0.235  -5.236  0.00  0.00    +0.115 S 
ATOM     10  O7  <0> A   1       7.876  -1.401 -10.053  0.00  0.00    -0.620 OA
ATOM     11 Cl1  <0> A   1       3.705   2.807  -6.877  0.00  0.00    -0.033 Cl
ENDROOT
BRANCH   7  12
ATOM     12  N1  <0> A   1       7.961  -2.054  -7.314  0.00  0.00    +0.061 N 
ATOM     13  O5  <0> A   1       9.094  -1.824  -6.961  0.00  0.00    -0.161 OA
ATOM     14  O6  <0> A   1       7.520  -3.177  -7.235  0.00  0.00    -0.159 OA
ENDBRANCH   7  12
BRANCH   1  15
ATOM     15  C7  <0> A   1       4.193   1.651  -3.971  0.00  0.00    +0.559 C 
ATOM     16  O4  <0> A   1       3.412   2.575  -4.092  0.00  0.00    -0.477 OA
BRANCH  15  17
ATOM     17  O3  <0> A   1       4.437   1.129  -2.751  0.00  0.00    -0.349 OA
BRANCH  17  18
ATOM     18  C6  <0> A   1       3.743   1.711  -1.646  0.00  0.00    +0.475 C 
BRANCH  18  19
ATOM     19  O2  <0> A   1       2.380   1.283  -1.661  0.00  0.00    -0.351 OA
BRANCH  19  20
ATOM     20  C5  <0> A   1       2.132   0.024  -1.268  0.00  0.00    +0.429 C 
ATOM     21  O1  <0> A   1       3.042  -0.691  -0.922  0.00  0.00    -0.496 OA
BRANCH  20  22
ATOM     22  C4  <0> A   1       0.718  -0.497  -1.257  0.00  0.00    +0.223 C 
BRANCH  22  24
ATOM     23  C1  <0> A   1      -0.019   1.526   0.010  0.00  0.00    +0.031 C 
ATOM     24  C2  <0> A   1       0.002  -0.004   0.002  0.00  0.00    -0.008 C 
ATOM     25  C3  <0> A   1      -1.433  -0.534   0.013  0.00  0.00    +0.045 C 
ENDBRANCH  22  24
BRANCH  22  26
ATOM     26  N2  <0> A   1       0.738  -1.966  -1.265  0.00  0.00    -0.811 NA
ATOM     27  H13 <0> A   1       1.149  -2.318  -2.117  0.00  0.00    +0.352 HD
ATOM     28  H14 <0> A   1       1.222  -2.326  -0.456  0.00  0.00    +0.352 HD
ENDBRANCH  22  26
ENDBRANCH  20  22
ENDBRANCH  19  20
ENDBRANCH  18  19
ENDBRANCH  17  18
ENDBRANCH  15  17
ENDBRANCH   1  15
BRANCH   5  29
ATOM     29  O8  <0> A   1       6.293   0.634 -11.010  0.00  0.00    -0.478 OA
ATOM     30  H12 <0> A   1       6.955   1.285 -11.280  0.00  0.00    +0.379 HD
ENDBRANCH   5  29
TORSDOF 10
ENDMDL
MODEL        7
REMARK  Name = CHEMBL1091982
REMARK  12 active torsions:
REMARK  status: ('A' for Active; 'I' for Inactive)
REMARK    1  A    between atoms: C1_1  and  C2_2
REMARK    2  A    between atoms: C2_2  and  C3_3
REMARK    3  A    between atoms: C2_2  and  C4_4
REMARK    4  A    between atoms: C4_4  and  C5_5
REMARK    5  A    between atoms: C4_4  and  N2_27
REMARK    6  A    between atoms: C5_5  and  O2_7
REMARK    7  A    between atoms: O2_7  and  C6_8
REMARK    8  A    between atoms: C6_8  and  O3_9
REMARK    9  A    between atoms: O3_9  and  C7_10
REMARK   10  A    between atoms: C7_10  and  C8_12
REMARK   11  A    between atoms: C12_16  and  O8_25
REMARK   12  A    between atoms: C14_18  and  N1_21
REMARK                            x       y       z     vdW  Elec       q    Type
REMARK                         _______ _______ _______ _____ _____    ______ ____
ROOT
ATOM      1  C8  <0> A   1       4.869   1.103  -5.150  0.00  0.00    -0.291 C 
ATOM      2  C9  <0> A   1       4.759   1.496  -6.450  0.00  0.00    +0.113 C 
ATOM      3  C10 <0> A   1       5.501   0.835  -7.446  0.00  0.00    -0.220 A 
ATOM      4  C11 <0> A   1       5.520   1.095  -8.842  0.00  0.00    +0.107 A 
ATOM      5  C12 <0> A   1       6.299   0.358  -9.678  0.00  0.00    +0.026 A 
ATOM      6  C13 <0> A   1       7.107  -0.678  -9.197  0.00  0.00    +0.332 A 
ATOM      7  C14 <0> A   1       7.114  -0.961  -7.843  0.00  0.00    -0.162 A 
ATOM      8  C15 <0> A   1       6.327  -0.219  -6.989  0.00  0.00    +0.019 A 
ATOM      9  S1  <0> A   1       6.046  -0.235  -5.236  0.00  0.00    +0.106 S 
ATOM     10  O7  <0> A   1       7.876  -1.401 -10.053  0.00  0.00    -0.606 OA
ATOM     11 Cl1  <0> A   1       3.705   2.807  -6.877  0.00  0.00    -0.030 Cl
ENDROOT
BRANCH   7  12
ATOM     12  N1  <0> A   1       7.961  -2.054  -7.314  0.00  0.00    +0.059 N 
ATOM     13  O5  <0> A   1       9.094  -1.824  -6.961  0.00  0.00    -0.155 OA
ATOM     14  O6  <0> A   1       7.520  -3.177  -7.235  0.00  0.00    -0.159 OA
ENDBRANCH   7  12
BRANCH   1  15
ATOM     15  C7  <0> A   1       4.193   1.651  -3.971  0.00  0.00    +0.560 C 
ATOM     16  O4  <0> A   1       3.412   2.575  -4.092  0.00  0.00    -0.476 OA
BRANCH  15  17
ATOM     17  O3  <0> A   1       4.437   1.129  -2.751  0.00  0.00    -0.347 OA
BRANCH  17  18
ATOM     18  C6  <0> A   1       3.743   1.711  -1.646  0.00  0.00    +0.506 C 
BRANCH  18  19
ATOM     19  O2  <0> A   1       2.380   1.283  -1.661  0.00  0.00    -0.331 OA
BRANCH  19  20
ATOM     20  C5  <0> A   1       2.132   0.024  -1.268  0.00  0.00    +0.456 C 
ATOM     21  O1  <0> A   1       3.042  -0.691  -0.922  0.00  0.00    -0.470 OA
BRANCH  20  22
ATOM     22  C4  <0> A   1       0.718  -0.497  -1.257  0.00  0.00    +0.216 C 
BRANCH  22  23
ATOM     23  N2  <0> A   1       0.738  -1.966  -1.265  0.00  0.00    -0.624 N 
ATOM     24  H13 <0> A   1      -0.208  -2.316  -1.258  0.00  0.00    +0.446 HD
ATOM     25  H14 <0> A   1       1.210  -2.292  -2.095  0.00  0.00    +0.445 HD
ATOM     26  H15 <0> A   1       1.226  -2.301  -0.447  0.00  0.00    +0.443 HD
ENDBRANCH  22  23
BRANCH  22  28
ATOM     27  C1  <0> A   1      -0.019   1.526   0.010  0.00  0.00    +0.076 C 
ATOM     28  C2  <0> A   1       0.002  -0.004   0.002  0.00  0.00    -0.003 C 
ATOM     29  C3  <0> A   1      -1.433  -0.534   0.013  0.00  0.00    +0.061 C 
ENDBRANCH  22  28
ENDBRANCH  20  22
ENDBRANCH  19  20
ENDBRANCH  18  19
ENDBRANCH  17  18
ENDBRANCH  15  17
ENDBRANCH   1  15
BRANCH   5  30
ATOM     30  O8  <0> A   1       6.293   0.634 -11.010  0.00  0.00    -0.477 OA
ATOM     31  H12 <0> A   1       6.955   1.285 -11.280  0.00  0.00    +0.383 HD
ENDBRANCH   5  30
TORSDOF 10
ENDMDL
MODEL        8
REMARK  Name = CHEMBL1091982
REMARK  13 active torsions:
REMARK  status: ('A' for Active; 'I' for Inactive)
REMARK    1  A    between atoms: C1_1  and  C2_2
REMARK    2  A    between atoms: C2_2  and  C3_3
REMARK    3  A    between atoms: C2_2  and  C4_4
REMARK    4  A    between atoms: C4_4  and  C5_5
REMARK    5  A    between atoms: C4_4  and  N2_27
REMARK    6  A    between atoms: C5_5  and  O2_7
REMARK    7  A    between atoms: O2_7  and  C6_8
REMARK    8  A    between atoms: C6_8  and  O3_9
REMARK    9  A    between atoms: O3_9  and  C7_10
REMARK   10  A    between atoms: C7_10  and  C8_12
REMARK   11  A    between atoms: C12_16  and  O8_25
REMARK   12  A    between atoms: C13_17  and  O7_24
REMARK   13  A    between atoms: C14_18  and  N1_21
REMARK                            x       y       z     vdW  Elec       q    Type
REMARK                         _______ _______ _______ _____ _____    ______ ____
ROOT
ATOM      1  C8  <0> A   1      -6.918   0.924  -1.642  0.00  0.00    -0.180 C 
ATOM      2  C9  <0> A   1      -7.999   1.292  -0.897  0.00  0.00    +0.031 C 
ATOM      3  C10 <0> A   1      -9.216   0.600  -1.039  0.00  0.00    -0.085 A 
ATOM      4  C11 <0> A   1     -10.441   0.832  -0.359  0.00  0.00    +0.136 A 
ATOM      5  C12 <0> A   1     -11.535   0.066  -0.613  0.00  0.00    +0.096 A 
ATOM      6  C13 <0> A   1     -11.496  -0.973  -1.549  0.00  0.00    +0.193 A 
ATOM      7  C14 <0> A   1     -10.320  -1.228  -2.232  0.00  0.00    -0.013 A 
ATOM      8  C15 <0> A   1      -9.206  -0.457  -1.980  0.00  0.00    -0.089 A 
ATOM      9  S1  <0> A   1      -7.548  -0.434  -2.613  0.00  0.00    +0.217 S 
ATOM     10 Cl1  <0> A   1      -7.875   2.611   0.225  0.00  0.00    +0.006 Cl
ENDROOT
BRANCH   7  11
ATOM     11  N1  <0> A   1     -10.258  -2.324  -3.226  0.00  0.00    +0.022 N 
ATOM     12  O5  <0> A   1     -10.525  -2.104  -4.385  0.00  0.00    -0.124 OA
ATOM     13  O6  <0> A   1      -9.941  -3.438  -2.879  0.00  0.00    -0.109 OA
ENDBRANCH   7  11
BRANCH   1  14
ATOM     14  C7  <0> A   1      -5.574   1.505  -1.647  0.00  0.00    +0.549 C 
ATOM     15  O4  <0> A   1      -5.311   2.439  -0.914  0.00  0.00    -0.446 OA
BRANCH  14  16
ATOM     16  O3  <0> A   1      -4.626   1.004  -2.467  0.00  0.00    -0.347 OA
BRANCH  16  17
ATOM     17  C6  <0> A   1      -3.337   1.619  -2.420  0.00  0.00    +0.488 C 
BRANCH  17  18
ATOM     18  O2  <0> A   1      -2.658   1.213  -1.230  0.00  0.00    -0.349 OA
BRANCH  18  19
ATOM     19  C5  <0> A   1      -2.162  -0.034  -1.208  0.00  0.00    +0.429 C 
ATOM     20  O1  <0> A   1      -2.300  -0.757  -2.167  0.00  0.00    -0.495 OA
BRANCH  19  21
ATOM     21  C4  <0> A   1      -1.433  -0.534   0.013  0.00  0.00    +0.224 C 
BRANCH  21  23
ATOM     22  C1  <0> A   1      -0.019   1.526   0.010  0.00  0.00    +0.032 C 
ATOM     23  C2  <0> A   1       0.002  -0.004   0.002  0.00  0.00    -0.007 C 
ATOM     24  C3  <0> A   1       0.742  -0.511   1.242  0.00  0.00    +0.047 C 
ENDBRANCH  21  23
BRANCH  21  25
ATOM     25  N2  <0> A   1      -1.413  -2.002   0.005  0.00  0.00    -0.810 NA
ATOM     26  H14 <0> A   1      -2.348  -2.377   0.077  0.00  0.00    +0.350 HD
ATOM     27  H15 <0> A   1      -0.945  -2.353  -0.817  0.00  0.00    +0.354 HD
ENDBRANCH  21  25
ENDBRANCH  19  21
ENDBRANCH  18  19
ENDBRANCH  17  18
ENDBRANCH  16  17
ENDBRANCH  14  16
ENDBRANCH   1  14
BRANCH   6  28
ATOM     28  O7  <0> A   1     -12.604  -1.724  -1.785  0.00  0.00    -0.467 OA
ATOM     29  H12 <0> A   1     -13.171  -1.379  -2.489  0.00  0.00    +0.413 HD
ENDBRANCH   6  28
BRANCH   5  30
ATOM     30  O8  <0> A   1     -12.692   0.316   0.057  0.00  0.00    -0.468 OA
ATOM     31  H13 <0> A   1     -13.273   0.951  -0.384  0.00  0.00    +0.401 HD
ENDBRANCH   5  30
TORSDOF 11
ENDMDL
MODEL        9
REMARK  Name = CHEMBL169926
REMARK  6 active torsions:
REMARK  status: ('A' for Active; 'I' for Inactive)
REMARK    1  A    between atoms: C4_4  and  C7_7
REMARK    2  A    between atoms: C7_7  and  C8_9
REMARK    3  A    between atoms: C9_10  and  C10_11
REMARK    4  A    between atoms: C12_13  and  N1_19
REMARK    5  A    between atoms: C13_14  and  O3_18
REMARK    6  A    between atoms: C14_15  and  O2_17
REMARK                            x       y       z     vdW  Elec       q    Type
REMARK                         _______ _______ _______ _____ _____    ______ ____
ROOT
ATOM      1  C10 <0> A   1       4.925  -4.228  -0.069  0.00  0.00    -0.068 A 
ATOM      2  C11 <0> A   1       6.148  -4.911  -0.079  0.00  0.00    +0.142 A 
ATOM      3  C12 <0> A   1       6.167  -6.287  -0.086  0.00  0.00    -0.067 A 
ATOM      4  C13 <0> A   1       4.976  -7.002  -0.083  0.00  0.00    +0.164 A 
ATOM      5  C14 <0> A   1       3.754  -6.330  -0.074  0.00  0.00    +0.086 A 
ATOM      6  C15 <0> A   1       3.725  -4.950  -0.061  0.00  0.00    +0.094 A 
ENDROOT
BRANCH   3   7
ATOM      7  N1  <0> A   1       7.460  -7.008  -0.097  0.00  0.00    +0.034 N 
ATOM      8  O4  <0> A   1       8.498  -6.387  -0.100  0.00  0.00    -0.158 OA
ATOM      9  O5  <0> A   1       7.479  -8.216  -0.103  0.00  0.00    -0.130 OA
ENDBRANCH   3   7
BRANCH   1  11
ATOM     10  C8  <0> A   1       3.719  -2.102  -0.045  0.00  0.00    -0.085 C 
ATOM     11  C9  <0> A   1       4.901  -2.759  -0.061  0.00  0.00    +0.140 C 
BRANCH  10  12
ATOM     12  C7  <0> A   1       3.696  -0.685  -0.037  0.00  0.00    +0.424 C 
ATOM     13  O1  <0> A   1       4.741  -0.059  -0.044  0.00  0.00    -0.453 OA
BRANCH  12  17
ATOM     14  C1  <0> A   1      -0.017   1.380   0.010  0.00  0.00    +0.041 A 
ATOM     15  C2  <0> A   1       1.169   2.094   0.002  0.00  0.00    +0.000 A 
ATOM     16  C3  <0> A   1       2.377   1.430  -0.013  0.00  0.00    +0.073 A 
ATOM     17  C4  <0> A   1       2.404   0.034  -0.021  0.00  0.00    -0.165 A 
ATOM     18  C5  <0> A   1       1.204  -0.680  -0.013  0.00  0.00    +0.053 A 
ATOM     19  C6  <0> A   1       0.002  -0.004   0.002  0.00  0.00    -0.002 A 
ENDBRANCH  12  17
ENDBRANCH  10  12
ENDBRANCH   1  11
BRANCH   5  20
ATOM     20  O2  <0> A   1       2.591  -7.034  -0.072  0.00  0.00    -0.471 OA
ATOM     21  H10 <0> A   1       2.258  -7.243   0.812  0.00  0.00    +0.398 HD
ENDBRANCH   5  20
BRANCH   4  22
ATOM     22  O3  <0> A   1       5.001  -8.360  -0.090  0.00  0.00    -0.459 OA
ATOM     23  H11 <0> A   1       5.013  -8.758   0.791  0.00  0.00    +0.406 HD
ENDBRANCH   4  22
TORSDOF 6
ENDMDL
MODEL       10
REMARK  Name = CHEMBL169926
REMARK  5 active torsions:
REMARK  status: ('A' for Active; 'I' for Inactive)
REMARK    1  A    between atoms: C4_4  and  C7_7
REMARK    2  A    between atoms: C7_7  and  C8_9
REMARK    3  A    between atoms: C9_10  and  C10_11
REMARK    4  A    between atoms: C12_13  and  N1_19
REMARK    5  A    between atoms: C14_15  and  O2_17
REMARK                            x       y       z     vdW  Elec       q    Type
REMARK                         _______ _______ _______ _____ _____    ______ ____
ROOT
ATOM      1  C10 <0> A   1       4.925  -4.228  -0.069  0.00  0.00    -0.219 A 
ATOM      2  C11 <0> A   1       6.148  -4.911  -0.079  0.00  0.00    +0.169 A 
ATOM      3  C12 <0> A   1       6.167  -6.287  -0.086  0.00  0.00    -0.198 A 
ATOM      4  C13 <0> A   1       4.976  -7.002  -0.083  0.00  0.00    +0.305 A 
ATOM      5  C14 <0> A   1       3.754  -6.330  -0.074  0.00  0.00    -0.020 A 
ATOM      6  C15 <0> A   1       3.725  -4.950  -0.061  0.00  0.00    +0.085 A 
ATOM      7  O3  <0> A   1       5.001  -8.360  -0.090  0.00  0.00    -0.606 OA
ENDROOT
BRANCH   3   8
ATOM      8  N1  <0> A   1       7.460  -7.008  -0.097  0.00  0.00    +0.069 N 
ATOM      9  O4  <0> A   1       8.498  -6.387  -0.100  0.00  0.00    -0.249 OA
ATOM     10  O5  <0> A   1       7.479  -8.216  -0.103  0.00  0.00    -0.155 OA
ENDBRANCH   3   8
BRANCH   1  12
ATOM     11  C8  <0> A   1       3.719  -2.102  -0.045  0.00  0.00    -0.185 C 
ATOM     12  C9  <0> A   1       4.901  -2.759  -0.061  0.00  0.00    +0.193 C 
BRANCH  11  13
ATOM     13  C7  <0> A   1       3.696  -0.685  -0.037  0.00  0.00    +0.428 C 
ATOM     14  O1  <0> A   1       4.741  -0.059  -0.044  0.00  0.00    -0.484 OA
BRANCH  13  18
ATOM     15  C1  <0> A   1      -0.017   1.380   0.010  0.00  0.00    +0.025 A 
ATOM     16  C2  <0> A   1       1.169   2.094   0.002  0.00  0.00    -0.010 A 
ATOM     17  C3  <0> A   1       2.377   1.430  -0.013  0.00  0.00    +0.063 A 
ATOM     18  C4  <0> A   1       2.404   0.034  -0.021  0.00  0.00    -0.152 A 
ATOM     19  C5  <0> A   1       1.204  -0.680  -0.013  0.00  0.00    +0.058 A 
ATOM     20  C6  <0> A   1       0.002  -0.004   0.002  0.00  0.00    -0.007 A 
ENDBRANCH  13  18
ENDBRANCH  11  13
ENDBRANCH   1  12
BRANCH   5  21
ATOM     21  O2  <0> A   1       2.591  -7.034  -0.072  0.00  0.00    -0.480 OA
ATOM     22  H10 <0> A   1       2.258  -7.243   0.812  0.00  0.00    +0.370 HD
ENDBRANCH   5  21
TORSDOF 5
ENDMDL
MODEL       11
REMARK  Name = CHEMBL355736
REMARK  4 active torsions:
REMARK  status: ('A' for Active; 'I' for Inactive)
REMARK    1  A    between atoms: C2_2  and  C8_11
REMARK    2  A    between atoms: C4_4  and  O3_10
REMARK    3  A    between atoms: C5_5  and  O2_9
REMARK    4  A    between atoms: C6_6  and  C7_7
REMARK                            x       y       z     vdW  Elec       q    Type
REMARK                         _______ _______ _______ _____ _____    ______ ____
ROOT
ATOM      1  C1  <0> A   1      -0.017   1.391   0.010  0.00  0.00    +0.151 A 
ATOM      2  C2  <0> A   1       1.184   2.101   0.002  0.00  0.00    -0.198 A 
ATOM      3  C3  <0> A   1       2.406   1.413  -0.014  0.00  0.00    +0.109 A 
ATOM      4  C4  <0> A   1       2.426   0.033  -0.022  0.00  0.00    +0.057 A 
ATOM      5  C5  <0> A   1       1.232  -0.686  -0.014  0.00  0.00    +0.168 A 
ATOM      6  C6  <0> A   1       0.002  -0.004   0.002  0.00  0.00    -0.219 A 
ENDROOT
BRANCH   6   7
ATOM      7  C7  <0> A   1      -1.258  -0.758   0.011  0.00  0.00    +0.503 C 
ATOM      8  O1  <0> A   1      -2.318  -0.168   0.024  0.00  0.00    -0.452 OA
ENDBRANCH   6   7
BRANCH   5   9
ATOM      9  O2  <0> A   1       1.256  -2.040  -0.022  0.00  0.00    -0.480 OA
ATOM     10  H4  <0> A   1       1.272  -2.439   0.859  0.00  0.00    +0.402 HD
ENDBRANCH   5   9
BRANCH   4  11
ATOM     11  O3  <0> A   1       3.615  -0.627  -0.038  0.00  0.00    -0.480 OA
ATOM     12  H5  <0> A   1       3.968  -0.824   0.841  0.00  0.00    +0.392 HD
ENDBRANCH   4  11
BRANCH   2  13
ATOM     13  C8  <0> A   1       1.169   3.570   0.010  0.00  0.00    +0.500 C 
ATOM     14  O4  <0> A   1       2.213   4.188   0.003  0.00  0.00    -0.452 OA
ENDBRANCH   2  13
TORSDOF 4
ENDMDL
MODEL       12
REMARK  Name = CHEMBL355736
REMARK  3 active torsions:
REMARK  status: ('A' for Active; 'I' for Inactive)
REMARK    1  A    between atoms: C2_2  and  C8_11
REMARK    2  A    between atoms: C4_4  and  O3_10
REMARK    3  A    between atoms: C6_6  and  C7_7
REMARK                            x       y       z     vdW  Elec       q    Type
REMARK                         _______ _______ _______ _____ _____    ______ ____
ROOT
ATOM      1  C1  <0> A   1      -0.017   1.391   0.010  0.00  0.00    +0.149 A 
ATOM      2  C2  <0> A   1       1.184   2.101   0.002  0.00  0.00    -0.334 A 
ATOM      3  C3  <0> A   1       2.406   1.413  -0.014  0.00  0.00    +0.089 A 
ATOM      4  C4  <0> A   1       2.426   0.033  -0.022  0.00  0.00    -0.054 A 
ATOM      5  C5  <0> A   1       1.232  -0.686  -0.014  0.00  0.00    +0.312 A 
ATOM      6  C6  <0> A   1       0.002  -0.004   0.002  0.00  0.00    -0.350 A 
ATOM      7  O2  <0> A   1       1.256  -2.040  -0.022  0.00  0.00    -0.633 OA
ENDROOT
BRANCH   6   8
ATOM      8  C7  <0> A   1      -1.258  -0.758   0.011  0.00  0.00    +0.447 C 
ATOM      9  O1  <0> A   1      -1.239  -1.971   0.004  0.00  0.00    -0.462 OA
ENDBRANCH   6   8
BRANCH   4  10
ATOM     10  O3  <0> A   1       3.615  -0.627  -0.038  0.00  0.00    -0.489 OA
ATOM     11  H4  <0> A   1       3.968  -0.824   0.841  0.00  0.00    +0.362 HD
ENDBRANCH   4  10
BRANCH   2  12
ATOM     12  C8  <0> A   1       1.169   3.570   0.010  0.00  0.00    +0.471 C 
ATOM     13  O4  <0> A   1       2.213   4.188   0.003  0.00  0.00    -0.508 OA
ENDBRANCH   2  12
TORSDOF 3
ENDMDL
MODEL       13
REMARK  Name = CHEMBL169891
REMARK  3 active torsions:
REMARK  status: ('A' for Active; 'I' for Inactive)
REMARK    1  A    between atoms: C2_2  and  C7_12
REMARK    2  A    between atoms: C4_4  and  O4_11
REMARK    3  A    between atoms: C6_6  and  N1_7
REMARK                            x       y       z     vdW  Elec       q    Type
REMARK                         _______ _______ _______ _____ _____    ______ ____
ROOT
ATOM      1  C1  <0> A   1      -0.017   1.374   0.010  0.00  0.00    +0.183 A 
ATOM      2  C2  <0> A   1       1.184   2.089   0.002  0.00  0.00    -0.160 A 
ATOM      3  C3  <0> A   1       2.402   1.403  -0.013  0.00  0.00    +0.098 A 
ATOM      4  C4  <0> A   1       2.413   0.022  -0.021  0.00  0.00    -0.013 A 
ATOM      5  C5  <0> A   1       1.212  -0.685  -0.013  0.00  0.00    +0.306 A 
ATOM      6  C6  <0> A   1       0.002  -0.004   0.002  0.00  0.00    -0.195 A 
ATOM      7  O3  <0> A   1       1.224  -2.043  -0.021  0.00  0.00    -0.605 OA
ENDROOT
BRANCH   6   8
ATOM      8  N1  <0> A   1      -1.271  -0.760   0.010  0.00  0.00    +0.070 N 
ATOM      9  O1  <0> A   1      -2.325  -0.168   0.023  0.00  0.00    -0.248 OA
ATOM     10  O2  <0> A   1      -1.256  -1.969   0.004  0.00  0.00    -0.152 OA
ENDBRANCH   6   8
BRANCH   4  11
ATOM     11  O4  <0> A   1       3.596  -0.648  -0.036  0.00  0.00    -0.478 OA
ATOM     12  H3  <0> A   1       3.947  -0.847   0.843  0.00  0.00    +0.372 HD
ENDBRANCH   4  11
BRANCH   2  13
ATOM     13  C7  <0> A   1       1.167   3.521   0.009  0.00  0.00    +0.286 C 
ATOM     14  N2  <0> A   1       1.153   4.657   0.015  0.00  0.00    -0.466 NA
ENDBRANCH   2  13
TORSDOF 3
ENDMDL
MODEL       14
REMARK  Name = CHEMBL169891
REMARK  4 active torsions:
REMARK  status: ('A' for Active; 'I' for Inactive)
REMARK    1  A    between atoms: C2_2  and  C7_12
REMARK    2  A    between atoms: C4_4  and  O4_11
REMARK    3  A    between atoms: C5_5  and  O3_10
REMARK    4  A    between atoms: C6_6  and  N1_7
REMARK                            x       y       z     vdW  Elec       q    Type
REMARK                         _______ _______ _______ _____ _____    ______ ____
ROOT
ATOM      1  C1  <0> A   1      -0.017   1.374   0.010  0.00  0.00    +0.168 A 
ATOM      2  C2  <0> A   1       1.184   2.089   0.002  0.00  0.00    -0.009 A 
ATOM      3  C3  <0> A   1       2.402   1.403  -0.013  0.00  0.00    +0.131 A 
ATOM      4  C4  <0> A   1       2.413   0.022  -0.021  0.00  0.00    +0.088 A 
ATOM      5  C5  <0> A   1       1.212  -0.685  -0.013  0.00  0.00    +0.182 A 
ATOM      6  C6  <0> A   1       0.002  -0.004   0.002  0.00  0.00    -0.068 A 
ENDROOT
BRANCH   6   7
ATOM      7  N1  <0> A   1      -1.271  -0.760   0.010  0.00  0.00    +0.034 N 
ATOM      8  O1  <0> A   1      -2.325  -0.168   0.023  0.00  0.00    -0.155 OA
ATOM      9  O2  <0> A   1      -1.256  -1.969   0.004  0.00  0.00    -0.125 OA
ENDBRANCH   6   7
BRANCH   5  10
ATOM     10  O3  <0> A   1       1.224  -2.043  -0.021  0.00  0.00    -0.458 OA
ATOM     11  H3  <0> A   1       1.237  -2.442   0.860  0.00  0.00    +0.410 HD
ENDBRANCH   5  10
BRANCH   4  12
ATOM     12  O4  <0> A   1       3.596  -0.648  -0.036  0.00  0.00    -0.468 OA
ATOM     13  H4  <0> A   1       3.947  -0.847   0.843  0.00  0.00    +0.401 HD
ENDBRANCH   4  12
BRANCH   2  14
ATOM     14  C7  <0> A   1       1.167   3.521   0.009  0.00  0.00    +0.244 C 
ATOM     15  N2  <0> A   1       1.153   4.657   0.015  0.00  0.00    -0.375 NA
ENDBRANCH   2  14
TORSDOF 4
ENDMDL
MODEL       15
REMARK  Name = CHEMBL355402
REMARK  5 active torsions:
REMARK  status: ('A' for Active; 'I' for Inactive)
REMARK    1  A    between atoms: C2_2  and  C7_12
REMARK    2  A    between atoms: C4_4  and  O4_11
REMARK    3  A    between atoms: C5_5  and  O3_10
REMARK    4  A    between atoms: C6_6  and  N1_7
REMARK    5  A    between atoms: C7_12  and  O5_13
REMARK                            x       y       z     vdW  Elec       q    Type
REMARK                         _______ _______ _______ _____ _____    ______ ____
ROOT
ATOM      1  C1  <0> A   1      -0.017   1.378   0.010  0.00  0.00    +0.132 A 
ATOM      2  C2  <0> A   1       1.169   2.089   0.002  0.00  0.00    -0.085 A 
ATOM      3  C3  <0> A   1       2.379   1.420  -0.013  0.00  0.00    +0.097 A 
ATOM      4  C4  <0> A   1       2.405   0.035  -0.021  0.00  0.00    +0.082 A 
ATOM      5  C5  <0> A   1       1.211  -0.680  -0.013  0.00  0.00    +0.158 A 
ATOM      6  C6  <0> A   1       0.002  -0.004   0.002  0.00  0.00    -0.069 A 
ENDROOT
BRANCH   6   7
ATOM      7  N1  <0> A   1      -1.270  -0.761   0.011  0.00  0.00    +0.036 N 
ATOM      8  O1  <0> A   1      -2.325  -0.171   0.024  0.00  0.00    -0.162 OA
ATOM      9  O2  <0> A   1      -1.253  -1.970   0.004  0.00  0.00    -0.133 OA
ENDBRANCH   6   7
BRANCH   5  10
ATOM     10  O3  <0> A   1       1.232  -2.040  -0.021  0.00  0.00    -0.461 OA
ATOM     11  H3  <0> A   1       1.246  -2.438   0.860  0.00  0.00    +0.405 HD
ENDBRANCH   5  10
BRANCH   4  12
ATOM     12  O4  <0> A   1       3.594  -0.625  -0.037  0.00  0.00    -0.473 OA
ATOM     13  H4  <0> A   1       3.947  -0.820   0.842  0.00  0.00    +0.398 HD
ENDBRANCH   4  12
BRANCH   2  14
ATOM     14  C7  <0> A   1       1.143   3.595   0.011  0.00  0.00    +0.253 C 
BRANCH  14  15
ATOM     15  O5  <0> A   1       1.148   4.064   1.360  0.00  0.00    -0.567 OA
ATOM     16  H7  <0> A   1       1.132   5.028   1.442  0.00  0.00    +0.390 HD
ENDBRANCH  14  15
ENDBRANCH   2  14
TORSDOF 5
ENDMDL
MODEL       16
REMARK  Name = CHEMBL355402
REMARK  4 active torsions:
REMARK  status: ('A' for Active; 'I' for Inactive)
REMARK    1  A    between atoms: C2_2  and  C7_12
REMARK    2  A    between atoms: C4_4  and  O4_11
REMARK    3  A    between atoms: C6_6  and  N1_7
REMARK    4  A    between atoms: C7_12  and  O5_13
REMARK                            x       y       z     vdW  Elec       q    Type
REMARK                         _______ _______ _______ _____ _____    ______ ____
ROOT
ATOM      1  C1  <0> A   1      -0.017   1.378   0.010  0.00  0.00    +0.137 A 
ATOM      2  C2  <0> A   1       1.169   2.089   0.002  0.00  0.00    -0.217 A 
ATOM      3  C3  <0> A   1       2.379   1.420  -0.013  0.00  0.00    +0.071 A 
ATOM      4  C4  <0> A   1       2.405   0.035  -0.021  0.00  0.00    -0.027 A 
ATOM      5  C5  <0> A   1       1.211  -0.680  -0.013  0.00  0.00    +0.295 A 
ATOM      6  C6  <0> A   1       0.002  -0.004   0.002  0.00  0.00    -0.201 A 
ATOM      7  O3  <0> A   1       1.232  -2.040  -0.021  0.00  0.00    -0.627 OA
ENDROOT
BRANCH   6   8
ATOM      8  N1  <0> A   1      -1.270  -0.761   0.011  0.00  0.00    +0.074 N 
ATOM      9  O1  <0> A   1      -2.325  -0.171   0.024  0.00  0.00    -0.260 OA
ATOM     10  O2  <0> A   1      -1.253  -1.970   0.004  0.00  0.00    -0.162 OA
ENDBRANCH   6   8
BRANCH   4  11
ATOM     11  O4  <0> A   1       3.594  -0.625  -0.037  0.00  0.00    -0.482 OA
ATOM     12  H3  <0> A   1       3.947  -0.820   0.842  0.00  0.00    +0.367 HD
ENDBRANCH   4  11
BRANCH   2  13
ATOM     13  C7  <0> A   1       1.143   3.595   0.011  0.00  0.00    +0.234 C 
BRANCH  13  14
ATOM     14  O5  <0> A   1       1.148   4.064   1.360  0.00  0.00    -0.572 OA
ATOM     15  H6  <0> A   1       1.132   5.028   1.442  0.00  0.00    +0.369 HD
ENDBRANCH  13  14
ENDBRANCH   2  13
TORSDOF 4
ENDMDL
MODEL       17
REMARK  Name = CHEMBL265218
REMARK  8 active torsions:
REMARK  status: ('A' for Active; 'I' for Inactive)
REMARK    1  A    between atoms: C2_2  and  N2_28
REMARK    2  A    between atoms: C3_3  and  O7_27
REMARK    3  A    between atoms: C4_4  and  O6_26
REMARK    4  A    between atoms: C6_6  and  C7_7
REMARK    5  A    between atoms: C11_12  and  C12_13
REMARK    6  A    between atoms: C14_15  and  O5_23
REMARK    7  A    between atoms: C15_16  and  O4_22
REMARK    8  A    between atoms: C16_17  and  N1_19
REMARK                            x       y       z     vdW  Elec       q    Type
REMARK                         _______ _______ _______ _____ _____    ______ ____
ROOT
ATOM      1  C7  <0> A   1      -1.294  -0.772   0.224  0.00  0.00    +0.136 C 
ATOM      2  C8  <0> A   1      -1.268  -2.114   0.071  0.00  0.00    -0.186 C 
ATOM      3  C9  <0> A   1      -2.433  -2.974  -0.118  0.00  0.00    +0.422 C 
ATOM      4  O1  <0> A   1      -3.588  -2.587  -0.163  0.00  0.00    -0.433 OA
ATOM      5  C10 <0> A   1      -2.009  -4.365  -0.247  0.00  0.00    -0.187 C 
ATOM      6  C11 <0> A   1      -2.826  -5.425  -0.433  0.00  0.00    +0.136 C 
ATOM      7  C18 <0> A   1      -0.505  -4.420  -0.138  0.00  0.00    +0.100 C 
ATOM      8  C19 <0> A   1      -0.029  -2.975   0.061  0.00  0.00    +0.100 C 
ENDROOT
BRANCH   1  14
ATOM      9  C1  <0> A   1      -0.061   1.387   0.248  0.00  0.00    +0.139 A 
ATOM     10  C2  <0> A   1       1.119   2.097   0.285  0.00  0.00    -0.066 A 
ATOM     11  C3  <0> A   1       2.334   1.428   0.340  0.00  0.00    +0.160 A 
ATOM     12  C4  <0> A   1       2.367   0.033   0.357  0.00  0.00    +0.086 A 
ATOM     13  C5  <0> A   1       1.190  -0.686   0.319  0.00  0.00    +0.081 A 
ATOM     14  C6  <0> A   1      -0.037  -0.012   0.264  0.00  0.00    -0.061 A 
BRANCH  10  15
ATOM     15  N2  <0> A   1       1.091   3.577   0.267  0.00  0.00    +0.034 N 
ATOM     16  O8  <0> A   1       0.034   4.161   0.219  0.00  0.00    -0.159 OA
ATOM     17  O9  <0> A   1       2.126   4.201   0.300  0.00  0.00    -0.130 OA
ENDBRANCH  10  15
BRANCH  12  18
ATOM     18  O6  <0> A   1       3.560  -0.618   0.410  0.00  0.00    -0.471 OA
ATOM     19  H13 <0> A   1       3.871  -0.796   1.309  0.00  0.00    +0.397 HD
ENDBRANCH  12  18
BRANCH  11  20
ATOM     20  O7  <0> A   1       3.494   2.133   0.377  0.00  0.00    -0.460 OA
ATOM     21  H14 <0> A   1       3.796   2.348   1.270  0.00  0.00    +0.406 HD
ENDBRANCH  11  20
ENDBRANCH   1  14
BRANCH   6  22
ATOM     22  C12 <0> A   1      -2.277  -6.788  -0.414  0.00  0.00    -0.061 A 
ATOM     23  C13 <0> A   1      -0.891  -6.987  -0.371  0.00  0.00    +0.082 A 
ATOM     24  C14 <0> A   1      -0.382  -8.270  -0.352  0.00  0.00    +0.086 A 
ATOM     25  C15 <0> A   1      -1.247  -9.364  -0.377  0.00  0.00    +0.160 A 
ATOM     26  C16 <0> A   1      -2.620  -9.168  -0.419  0.00  0.00    -0.066 A 
ATOM     27  C17 <0> A   1      -3.138  -7.891  -0.432  0.00  0.00    +0.139 A 
BRANCH  26  28
ATOM     28  N1  <0> A   1      -3.532 -10.334  -0.445  0.00  0.00    +0.034 N 
ATOM     29  O2  <0> A   1      -4.729 -10.165  -0.482  0.00  0.00    -0.159 OA
ATOM     30  O3  <0> A   1      -3.080 -11.455  -0.429  0.00  0.00    -0.130 OA
ENDBRANCH  26  28
BRANCH  25  31
ATOM     31  O4  <0> A   1      -0.743 -10.625  -0.359  0.00  0.00    -0.460 OA
ATOM     32  H7  <0> A   1      -0.624 -10.989   0.529  0.00  0.00    +0.406 HD
ENDBRANCH  25  31
BRANCH  24  33
ATOM     33  O5  <0> A   1       0.963  -8.466  -0.311  0.00  0.00    -0.471 OA
ATOM     34  H8  <0> A   1       1.325  -8.521   0.584  0.00  0.00    +0.397 HD
ENDBRANCH  24  33
ENDBRANCH   6  22
TORSDOF 8
ENDMDL
MODEL       18
REMARK  Name = CHEMBL265218
REMARK  7 active torsions:
REMARK  status: ('A' for Active; 'I' for Inactive)
REMARK    1  A    between atoms: C2_2  and  N2_28
REMARK    2  A    between atoms: C3_3  and  O7_27
REMARK    3  A    between atoms: C4_4  and  O6_26
REMARK    4  A    between atoms: C6_6  and  C7_7
REMARK    5  A    between atoms: C11_12  and  C12_13
REMARK    6  A    between atoms: C14_15  and  O5_23
REMARK    7  A    between atoms: C16_17  and  N1_19
REMARK                            x       y       z     vdW  Elec       q    Type
REMARK                         _______ _______ _______ _____ _____    ______ ____
ROOT
ATOM      1  C7  <0> A   1      -1.294  -0.772   0.225  0.00  0.00    +0.095 C 
ATOM      2  C8  <0> A   1      -1.268  -2.114   0.072  0.00  0.00    -0.157 C 
ATOM      3  C9  <0> A   1      -2.433  -2.974  -0.117  0.00  0.00    +0.424 C 
ATOM      4  O1  <0> A   1      -3.588  -2.587  -0.161  0.00  0.00    -0.461 OA
ATOM      5  C10 <0> A   1      -2.009  -4.365  -0.246  0.00  0.00    -0.275 C 
ATOM      6  C11 <0> A   1      -2.826  -5.425  -0.432  0.00  0.00    +0.192 C 
ATOM      7  C18 <0> A   1      -0.505  -4.420  -0.137  0.00  0.00    +0.100 C 
ATOM      8  C19 <0> A   1      -0.029  -2.975   0.061  0.00  0.00    +0.085 C 
ENDROOT
BRANCH   6   9
ATOM      9  C12 <0> A   1      -2.277  -6.788  -0.412  0.00  0.00    -0.212 A 
ATOM     10  C13 <0> A   1      -0.892  -6.987  -0.369  0.00  0.00    +0.079 A 
ATOM     11  C14 <0> A   1      -0.382  -8.270  -0.350  0.00  0.00    -0.022 A 
ATOM     12  C15 <0> A   1      -1.247  -9.364  -0.374  0.00  0.00    +0.302 A 
ATOM     13  C16 <0> A   1      -2.621  -9.168  -0.416  0.00  0.00    -0.196 A 
ATOM     14  C17 <0> A   1      -3.138  -7.891  -0.429  0.00  0.00    +0.164 A 
ATOM     15  O4  <0> A   1      -0.743 -10.625  -0.355  0.00  0.00    -0.607 OA
BRANCH  13  16
ATOM     16  N1  <0> A   1      -3.532 -10.334  -0.440  0.00  0.00    +0.069 N 
ATOM     17  O2  <0> A   1      -4.729 -10.165  -0.477  0.00  0.00    -0.249 OA
ATOM     18  O3  <0> A   1      -3.080 -11.455  -0.423  0.00  0.00    -0.155 OA
ENDBRANCH  13  16
BRANCH  11  19
ATOM     19  O5  <0> A   1       0.963  -8.467  -0.310  0.00  0.00    -0.480 OA
ATOM     20  H7  <0> A   1       1.325  -8.521   0.585  0.00  0.00    +0.369 HD
ENDBRANCH  11  19
ENDBRANCH   6   9
BRANCH   1  26
ATOM     21  C1  <0> A   1      -0.062   1.387   0.247  0.00  0.00    +0.128 A 
ATOM     22  C2  <0> A   1       1.119   2.097   0.285  0.00  0.00    -0.066 A 
ATOM     23  C3  <0> A   1       2.334   1.428   0.339  0.00  0.00    +0.149 A 
ATOM     24  C4  <0> A   1       2.367   0.034   0.356  0.00  0.00    +0.088 A 
ATOM     25  C5  <0> A   1       1.190  -0.686   0.318  0.00  0.00    +0.080 A 
ATOM     26  C6  <0> A   1      -0.037  -0.012   0.264  0.00  0.00    -0.045 A 
BRANCH  22  27
ATOM     27  N2  <0> A   1       1.091   3.577   0.267  0.00  0.00    +0.037 N 
ATOM     28  O8  <0> A   1       0.034   4.161   0.219  0.00  0.00    -0.164 OA
ATOM     29  O9  <0> A   1       2.126   4.201   0.300  0.00  0.00    -0.136 OA
ENDBRANCH  22  27
BRANCH  24  30
ATOM     30  O6  <0> A   1       3.560  -0.617   0.409  0.00  0.00    -0.472 OA
ATOM     31  H12 <0> A   1       3.871  -0.796   1.307  0.00  0.00    +0.396 HD
ENDBRANCH  24  30
BRANCH  23  32
ATOM     32  O7  <0> A   1       3.494   2.133   0.376  0.00  0.00    -0.462 OA
ATOM     33  H13 <0> A   1       3.796   2.348   1.269  0.00  0.00    +0.402 HD
ENDBRANCH  23  32
ENDBRANCH   1  26
TORSDOF 7
ENDMDL
MODEL       19
REMARK  Name = CHEMBL167172
REMARK  5 active torsions:
REMARK  status: ('A' for Active; 'I' for Inactive)
REMARK    1  A    between atoms: C2_2  and  C8_11
REMARK    2  A    between atoms: C4_4  and  O2_10
REMARK    3  A    between atoms: C5_5  and  O1_9
REMARK    4  A    between atoms: C6_6  and  C7_7
REMARK    5  A    between atoms: N2_13  and  C9_14
REMARK                            x       y       z     vdW  Elec       q    Type
REMARK                         _______ _______ _______ _____ _____    ______ ____
ROOT
ATOM      1  C8  <0> A   1       1.165   3.575   0.010  0.00  0.00    +0.564 C 
ATOM      2  O3  <0> A   1       0.105   4.171   0.023  0.00  0.00    -0.521 OA
ATOM      3  N2  <0> A   1       2.325   4.263   0.002  0.00  0.00    -0.719 N 
ATOM      4  H5  <0> A   1       3.170   3.787  -0.008  0.00  0.00    +0.399 HD
ENDROOT
BRANCH   3   5
ATOM      5  C9  <0> A   1       2.308   5.727   0.010  0.00  0.00    +0.184 C 
ATOM      6  C10 <0> A   1       1.569   6.236  -1.230  0.00  0.00    +0.024 C 
ATOM      7  C11 <0> A   1       1.552   7.765  -1.222  0.00  0.00    -0.010 C 
ATOM      8  C12 <0> A   1       2.989   8.292  -1.233  0.00  0.00    +0.016 C 
ATOM      9  C13 <0> A   1       3.727   7.784   0.007  0.00  0.00    -0.005 C 
ATOM     10  C14 <0> A   1       3.745   6.254  -0.001  0.00  0.00    +0.023 C 
ATOM     11  C15 <0> A   1       3.012   8.279   1.265  0.00  0.00    +0.016 C 
ATOM     12  C16 <0> A   1       1.575   7.753   1.276  0.00  0.00    -0.010 C 
ATOM     13  C17 <0> A   1       0.837   8.261   0.036  0.00  0.00    +0.019 C 
ATOM     14  C18 <0> A   1       1.593   6.223   1.268  0.00  0.00    +0.025 C 
ENDBRANCH   3   5
BRANCH   1  16
ATOM     15  C1  <0> A   1      -0.017   1.389   0.010  0.00  0.00    +0.153 A 
ATOM     16  C2  <0> A   1       1.182   2.099   0.002  0.00  0.00    -0.128 A 
ATOM     17  C3  <0> A   1       2.401   1.414  -0.013  0.00  0.00    +0.075 A 
ATOM     18  C4  <0> A   1       2.422   0.033  -0.021  0.00  0.00    +0.080 A 
ATOM     19  C5  <0> A   1       1.228  -0.685  -0.014  0.00  0.00    +0.157 A 
ATOM     20  C6  <0> A   1       0.002  -0.004   0.002  0.00  0.00    -0.043 A 
BRANCH  20  21
ATOM     21  C7  <0> A   1      -1.227  -0.739   0.010  0.00  0.00    +0.252 C 
ATOM     22  N1  <0> A   1      -2.202  -1.322   0.017  0.00  0.00    -0.392 NA
ENDBRANCH  20  21
BRANCH  19  23
ATOM     23  O1  <0> A   1       1.252  -2.041  -0.022  0.00  0.00    -0.477 OA
ATOM     24  H3  <0> A   1       1.267  -2.439   0.859  0.00  0.00    +0.401 HD
ENDBRANCH  19  23
BRANCH  18  25
ATOM     25  O2  <0> A   1       3.611  -0.628  -0.036  0.00  0.00    -0.478 OA
ATOM     26  H4  <0> A   1       3.963  -0.824   0.843  0.00  0.00    +0.394 HD
ENDBRANCH  18  25
ENDBRANCH   1  16
TORSDOF 5
ENDMDL
MODEL       20
REMARK  Name = CHEMBL167172
REMARK  4 active torsions:
REMARK  status: ('A' for Active; 'I' for Inactive)
REMARK    1  A    between atoms: C2_2  and  C8_11
REMARK    2  A    between atoms: C4_4  and  O2_10
REMARK    3  A    between atoms: C6_6  and  C7_7
REMARK    4  A    between atoms: N2_13  and  C9_14
REMARK                            x       y       z     vdW  Elec       q    Type
REMARK                         _______ _______ _______ _____ _____    ______ ____
ROOT
ATOM      1  C8  <0> A   1       1.165   3.575   0.010  0.00  0.00    +0.581 C 
ATOM      2  O3  <0> A   1       0.105   4.171   0.023  0.00  0.00    -0.557 OA
ATOM      3  N2  <0> A   1       2.325   4.263   0.002  0.00  0.00    -0.733 N 
ATOM      4  H4  <0> A   1       3.170   3.787  -0.008  0.00  0.00    +0.396 HD
ENDROOT
BRANCH   3   5
ATOM      5  C9  <0> A   1       2.308   5.727   0.010  0.00  0.00    +0.188 C 
ATOM      6  C10 <0> A   1       1.569   6.236  -1.230  0.00  0.00    +0.023 C 
ATOM      7  C11 <0> A   1       1.552   7.765  -1.222  0.00  0.00    -0.014 C 
ATOM      8  C12 <0> A   1       2.989   8.292  -1.233  0.00  0.00    +0.012 C 
ATOM      9  C13 <0> A   1       3.727   7.784   0.007  0.00  0.00    -0.009 C 
ATOM     10  C14 <0> A   1       3.745   6.254  -0.001  0.00  0.00    +0.018 C 
ATOM     11  C15 <0> A   1       3.012   8.279   1.265  0.00  0.00    +0.012 C 
ATOM     12  C16 <0> A   1       1.575   7.753   1.276  0.00  0.00    -0.014 C 
ATOM     13  C17 <0> A   1       0.837   8.261   0.036  0.00  0.00    +0.015 C 
ATOM     14  C18 <0> A   1       1.593   6.223   1.268  0.00  0.00    +0.023 C 
ENDBRANCH   3   5
BRANCH   1  16
ATOM     15  C1  <0> A   1      -0.017   1.389   0.010  0.00  0.00    +0.170 A 
ATOM     16  C2  <0> A   1       1.182   2.099   0.002  0.00  0.00    -0.274 A 
ATOM     17  C3  <0> A   1       2.401   1.414  -0.013  0.00  0.00    +0.066 A 
ATOM     18  C4  <0> A   1       2.422   0.033  -0.021  0.00  0.00    -0.039 A 
ATOM     19  C5  <0> A   1       1.228  -0.685  -0.014  0.00  0.00    +0.311 A 
ATOM     20  C6  <0> A   1       0.002  -0.004   0.002  0.00  0.00    -0.204 A 
ATOM     21  O1  <0> A   1       1.252  -2.041  -0.022  0.00  0.00    -0.665 OA
BRANCH  20  22
ATOM     22  C7  <0> A   1      -1.227  -0.739   0.010  0.00  0.00    +0.306 C 
ATOM     23  N1  <0> A   1      -2.202  -1.322   0.017  0.00  0.00    -0.492 NA
ENDBRANCH  20  22
BRANCH  18  24
ATOM     24  O2  <0> A   1       3.611  -0.628  -0.036  0.00  0.00    -0.486 OA
ATOM     25  H3  <0> A   1       3.963  -0.824   0.843  0.00  0.00    +0.363 HD
ENDBRANCH  18  24
ENDBRANCH   1  16
TORSDOF 4
ENDMDL
MODEL       21
REMARK  Name = CHEMBL8649
REMARK  9 active torsions:
REMARK  status: ('A' for Active; 'I' for Inactive)
REMARK    1  A    between atoms: C4_4  and  C7_7
REMARK    2  A    between atoms: C7_7  and  C8_8
REMARK    3  A    between atoms: C8_8  and  C9_9
REMARK    4  A    between atoms: C9_9  and  C10_10
REMARK    5  A    between atoms: C10_10  and  C11_11
REMARK    6  A    between atoms: C11_11  and  C12_13
REMARK    7  A    between atoms: C15_16  and  O5_23
REMARK    8  A    between atoms: C16_17  and  O4_22
REMARK    9  A    between atoms: C17_18  and  N1_19
REMARK                            x       y       z     vdW  Elec       q    Type
REMARK                         _______ _______ _______ _____ _____    ______ ____
ROOT
ATOM      1  C12 <0> A   1       7.936  -3.067   4.064  0.00  0.00    -0.123 A 
ATOM      2  C13 <0> A   1       7.337  -2.737   5.285  0.00  0.00    +0.113 A 
ATOM      3  C14 <0> A   1       7.952  -3.081   6.468  0.00  0.00    +0.054 A 
ATOM      4  C15 <0> A   1       9.167  -3.754   6.453  0.00  0.00    +0.131 A 
ATOM      5  C16 <0> A   1       9.771  -4.086   5.240  0.00  0.00    +0.119 A 
ATOM      6  C17 <0> A   1       9.158  -3.750   4.050  0.00  0.00    +0.003 A 
ENDROOT
BRANCH   6   7
ATOM      7  N1  <0> A   1       9.794  -4.107   2.762  0.00  0.00    +0.037 N 
ATOM      8  O2  <0> A   1      10.565  -3.339   2.235  0.00  0.00    -0.117 OA
ATOM      9  O3  <0> A   1       9.543  -5.167   2.236  0.00  0.00    -0.133 OA
ENDBRANCH   6   7
BRANCH   1  10
ATOM     10  C11 <0> A   1       7.282  -2.702   2.800  0.00  0.00    +0.383 C 
ATOM     11  O1  <0> A   1       7.800  -2.993   1.743  0.00  0.00    -0.426 OA
BRANCH  10  12
ATOM     12  C10 <0> A   1       5.967  -1.966   2.818  0.00  0.00    +0.055 C 
BRANCH  12  13
ATOM     13  C9  <0> A   1       5.507  -1.710   1.381  0.00  0.00    +0.032 C 
BRANCH  13  14
ATOM     14  C8  <0> A   1       4.171  -0.963   1.399  0.00  0.00    +0.020 C 
BRANCH  14  15
ATOM     15  C7  <0> A   1       3.711  -0.707  -0.038  0.00  0.00    +0.065 C 
BRANCH  15  19
ATOM     16  C1  <0> A   1      -0.017   1.378   0.010  0.00  0.00    -0.005 A 
ATOM     17  C2  <0> A   1       1.171   2.086   0.002  0.00  0.00    +0.004 A 
ATOM     18  C3  <0> A   1       2.377   1.411  -0.013  0.00  0.00    +0.002 A 
ATOM     19  C4  <0> A   1       2.396   0.029  -0.020  0.00  0.00    -0.082 A 
ATOM     20  C5  <0> A   1       1.208  -0.679  -0.012  0.00  0.00    +0.002 A 
ATOM     21  C6  <0> A   1       0.002  -0.004   0.002  0.00  0.00    +0.003 A 
ENDBRANCH  15  19
ENDBRANCH  14  15
ENDBRANCH  13  14
ENDBRANCH  12  13
ENDBRANCH  10  12
ENDBRANCH   1  10
BRANCH   5  22
ATOM     22  O4  <0> A   1      10.960  -4.745   5.231  0.00  0.00    -0.473 OA
ATOM     23  H16 <0> A   1      10.876  -5.708   5.226  0.00  0.00    +0.404 HD
ENDBRANCH   5  22
BRANCH   4  24
ATOM     24  O5  <0> A   1       9.768  -4.090   7.623  0.00  0.00    -0.472 OA
ATOM     25  H17 <0> A   1       9.514  -4.960   7.960  0.00  0.00    +0.403 HD
ENDBRANCH   4  24
TORSDOF 9
ENDMDL
MODEL       22
REMARK  Name = CHEMBL8649
REMARK  8 active torsions:
REMARK  status: ('A' for Active; 'I' for Inactive)
REMARK    1  A    between atoms: C4_4  and  C7_7
REMARK    2  A    between atoms: C7_7  and  C8_8
REMARK    3  A    between atoms: C8_8  and  C9_9
REMARK    4  A    between atoms: C9_9  and  C10_10
REMARK    5  A    between atoms: C10_10  and  C11_11
REMARK    6  A    between atoms: C11_11  and  C12_13
REMARK    7  A    between atoms: C15_16  and  O5_23
REMARK    8  A    between atoms: C17_18  and  N1_19
REMARK                            x       y       z     vdW  Elec       q    Type
REMARK                         _______ _______ _______ _____ _____    ______ ____
ROOT
ATOM      1  C11 <0> A   1       7.282  -2.702   2.800  0.00  0.00    +0.384 C 
ATOM      2  O1  <0> A   1       7.800  -2.993   1.743  0.00  0.00    -0.447 OA
ENDROOT
BRANCH   1   3
ATOM      3  C12 <0> A   1       7.936  -3.067   4.064  0.00  0.00    -0.089 A 
ATOM      4  C13 <0> A   1       7.337  -2.737   5.285  0.00  0.00    -0.047 A 
ATOM      5  C14 <0> A   1       7.952  -3.081   6.468  0.00  0.00    +0.033 A 
ATOM      6  C15 <0> A   1       9.167  -3.754   6.453  0.00  0.00    +0.011 A 
ATOM      7  C16 <0> A   1       9.771  -4.086   5.240  0.00  0.00    +0.273 A 
ATOM      8  C17 <0> A   1       9.158  -3.750   4.050  0.00  0.00    -0.138 A 
ATOM      9  O4  <0> A   1      10.960  -4.745   5.231  0.00  0.00    -0.674 OA
BRANCH   8  10
ATOM     10  N1  <0> A   1       9.794  -4.107   2.762  0.00  0.00    +0.079 N 
ATOM     11  O2  <0> A   1      10.565  -3.339   2.235  0.00  0.00    -0.172 OA
ATOM     12  O3  <0> A   1       9.543  -5.167   2.236  0.00  0.00    -0.173 OA
ENDBRANCH   8  10
BRANCH   6  13
ATOM     13  O5  <0> A   1       9.768  -4.090   7.623  0.00  0.00    -0.481 OA
ATOM     14  H16 <0> A   1       9.514  -4.960   7.960  0.00  0.00    +0.372 HD
ENDBRANCH   6  13
ENDBRANCH   1   3
BRANCH   1  15
ATOM     15  C10 <0> A   1       5.967  -1.966   2.818  0.00  0.00    +0.042 C 
BRANCH  15  16
ATOM     16  C9  <0> A   1       5.507  -1.710   1.381  0.00  0.00    +0.027 C 
BRANCH  16  17
ATOM     17  C8  <0> A   1       4.171  -0.963   1.399  0.00  0.00    +0.018 C 
BRANCH  17  18
ATOM     18  C7  <0> A   1       3.711  -0.707  -0.038  0.00  0.00    +0.063 C 
BRANCH  18  22
ATOM     19  C1  <0> A   1      -0.017   1.378   0.010  0.00  0.00    -0.010 A 
ATOM     20  C2  <0> A   1       1.171   2.086   0.002  0.00  0.00    +0.001 A 
ATOM     21  C3  <0> A   1       2.377   1.411  -0.013  0.00  0.00    +0.003 A 
ATOM     22  C4  <0> A   1       2.396   0.029  -0.020  0.00  0.00    -0.076 A 
ATOM     23  C5  <0> A   1       1.208  -0.679  -0.012  0.00  0.00    +0.003 A 
ATOM     24  C6  <0> A   1       0.002  -0.004   0.002  0.00  0.00    +0.001 A 
ENDBRANCH  18  22
ENDBRANCH  17  18
ENDBRANCH  16  17
ENDBRANCH  15  16
ENDBRANCH   1  15
TORSDOF 8
ENDMDL
MODEL       23
REMARK  Name = CHEMBL350927
REMARK  5 active torsions:
REMARK  status: ('A' for Active; 'I' for Inactive)
REMARK    1  A    between atoms: C2_2  and  C7_12
REMARK    2  A    between atoms: C4_4  and  O4_11
REMARK    3  A    between atoms: C5_5  and  O3_10
REMARK    4  A    between atoms: C6_6  and  N1_7
REMARK    5  A    between atoms: N2_14  and  C8_15
REMARK                            x       y       z     vdW  Elec       q    Type
REMARK                         _______ _______ _______ _____ _____    ______ ____
ROOT
ATOM      1  C7  <0> A   1       1.165   3.565   0.009  0.00  0.00    +0.565 C 
ATOM      2  O5  <0> A   1       0.105   4.159   0.022  0.00  0.00    -0.513 OA
ATOM      3  N2  <0> A   1       2.324   4.253   0.002  0.00  0.00    -0.717 N 
ATOM      4  H5  <0> A   1       3.170   3.778  -0.008  0.00  0.00    +0.398 HD
ENDROOT
BRANCH   3   5
ATOM      5  C8  <0> A   1       2.306   5.718   0.010  0.00  0.00    +0.184 C 
ATOM      6  C9  <0> A   1       1.567   6.225  -1.230  0.00  0.00    +0.024 C 
ATOM      7  C10 <0> A   1       1.548   7.755  -1.222  0.00  0.00    -0.008 C 
ATOM      8  C11 <0> A   1       2.984   8.283  -1.233  0.00  0.00    +0.017 C 
ATOM      9  C12 <0> A   1       3.723   7.776   0.007  0.00  0.00    -0.004 C 
ATOM     10  C13 <0> A   1       3.742   6.246  -0.001  0.00  0.00    +0.024 C 
ATOM     11  C14 <0> A   1       3.007   8.270   1.265  0.00  0.00    +0.017 C 
ATOM     12  C15 <0> A   1       1.571   7.742   1.276  0.00  0.00    -0.008 C 
ATOM     13  C16 <0> A   1       0.832   8.250   0.036  0.00  0.00    +0.020 C 
ATOM     14  C17 <0> A   1       1.590   6.213   1.268  0.00  0.00    +0.024 C 
ENDBRANCH   3   5
BRANCH   1  16
ATOM     15  C1  <0> A   1      -0.017   1.374   0.010  0.00  0.00    +0.183 A 
ATOM     16  C2  <0> A   1       1.184   2.089   0.002  0.00  0.00    -0.127 A 
ATOM     17  C3  <0> A   1       2.401   1.404  -0.013  0.00  0.00    +0.105 A 
ATOM     18  C4  <0> A   1       2.413   0.022  -0.021  0.00  0.00    +0.080 A 
ATOM     19  C5  <0> A   1       1.212  -0.685  -0.013  0.00  0.00    +0.178 A 
ATOM     20  C6  <0> A   1       0.002  -0.004   0.002  0.00  0.00    -0.073 A 
BRANCH  20  21
ATOM     21  N1  <0> A   1      -1.271  -0.760   0.011  0.00  0.00    +0.035 N 
ATOM     22  O1  <0> A   1      -2.325  -0.168   0.024  0.00  0.00    -0.154 OA
ATOM     23  O2  <0> A   1      -1.256  -1.969   0.004  0.00  0.00    -0.129 OA
ENDBRANCH  20  21
BRANCH  19  24
ATOM     24  O3  <0> A   1       1.225  -2.043  -0.021  0.00  0.00    -0.458 OA
ATOM     25  H3  <0> A   1       1.237  -2.441   0.861  0.00  0.00    +0.408 HD
ENDBRANCH  19  24
BRANCH  18  26
ATOM     26  O4  <0> A   1       3.597  -0.648  -0.036  0.00  0.00    -0.470 OA
ATOM     27  H4  <0> A   1       3.948  -0.846   0.843  0.00  0.00    +0.399 HD
ENDBRANCH  18  26
ENDBRANCH   1  16
TORSDOF 5
ENDMDL
MODEL       24
REMARK  Name = CHEMBL350927
REMARK  4 active torsions:
REMARK  status: ('A' for Active; 'I' for Inactive)
REMARK    1  A    between atoms: C2_2  and  C7_12
REMARK    2  A    between atoms: C4_4  and  O4_11
REMARK    3  A    between atoms: C6_6  and  N1_7
REMARK    4  A    between atoms: N2_14  and  C8_15
REMARK                            x       y       z     vdW  Elec       q    Type
REMARK                         _______ _______ _______ _____ _____    ______ ____
ROOT
ATOM      1  C7  <0> A   1       1.165   3.565   0.009  0.00  0.00    +0.583 C 
ATOM      2  O5  <0> A   1       0.105   4.159   0.022  0.00  0.00    -0.549 OA
ATOM      3  N2  <0> A   1       2.324   4.253   0.002  0.00  0.00    -0.731 N 
ATOM      4  H4  <0> A   1       3.170   3.778  -0.008  0.00  0.00    +0.396 HD
ENDROOT
BRANCH   3   5
ATOM      5  C8  <0> A   1       2.306   5.718   0.010  0.00  0.00    +0.188 C 
ATOM      6  C9  <0> A   1       1.567   6.225  -1.230  0.00  0.00    +0.023 C 
ATOM      7  C10 <0> A   1       1.548   7.755  -1.222  0.00  0.00    -0.012 C 
ATOM      8  C11 <0> A   1       2.984   8.283  -1.233  0.00  0.00    +0.013 C 
ATOM      9  C12 <0> A   1       3.723   7.776   0.007  0.00  0.00    -0.008 C 
ATOM     10  C13 <0> A   1       3.742   6.246  -0.001  0.00  0.00    +0.019 C 
ATOM     11  C14 <0> A   1       3.007   8.270   1.265  0.00  0.00    +0.013 C 
ATOM     12  C15 <0> A   1       1.571   7.742   1.276  0.00  0.00    -0.013 C 
ATOM     13  C16 <0> A   1       0.832   8.250   0.036  0.00  0.00    +0.016 C 
ATOM     14  C17 <0> A   1       1.590   6.213   1.268  0.00  0.00    +0.023 C 
ENDBRANCH   3   5
BRANCH   1  16
ATOM     15  C1  <0> A   1      -0.017   1.374   0.010  0.00  0.00    +0.199 A 
ATOM     16  C2  <0> A   1       1.184   2.089   0.002  0.00  0.00    -0.265 A 
ATOM     17  C3  <0> A   1       2.401   1.404  -0.013  0.00  0.00    +0.079 A 
ATOM     18  C4  <0> A   1       2.413   0.022  -0.021  0.00  0.00    -0.023 A 
ATOM     19  C5  <0> A   1       1.212  -0.685  -0.013  0.00  0.00    +0.306 A 
ATOM     20  C6  <0> A   1       0.002  -0.004   0.002  0.00  0.00    -0.202 A 
ATOM     21  O3  <0> A   1       1.225  -2.043  -0.021  0.00  0.00    -0.610 OA
BRANCH  20  22
ATOM     22  N1  <0> A   1      -1.271  -0.760   0.011  0.00  0.00    +0.070 N 
ATOM     23  O1  <0> A   1      -2.325  -0.168   0.024  0.00  0.00    -0.248 OA
ATOM     24  O2  <0> A   1      -1.256  -1.969   0.004  0.00  0.00    -0.157 OA
ENDBRANCH  20  22
BRANCH  18  25
ATOM     25  O4  <0> A   1       3.597  -0.648  -0.036  0.00  0.00    -0.480 OA
ATOM     26  H3  <0> A   1       3.948  -0.846   0.843  0.00  0.00    +0.369 HD
ENDBRANCH  18  25
ENDBRANCH   1  16
TORSDOF 4
ENDMDL
MODEL       25
REMARK  Name = CHEMBL1244
REMARK  3 active torsions:
REMARK  status: ('A' for Active; 'I' for Inactive)
REMARK    1  A    between atoms: C2_2  and  C7_12
REMARK    2  A    between atoms: C4_4  and  O4_11
REMARK    3  A    between atoms: C6_6  and  N1_7
REMARK                            x       y       z     vdW  Elec       q    Type
REMARK                         _______ _______ _______ _____ _____    ______ ____
ROOT
ATOM      1  C1  <0> A   1      -0.017   1.373   0.010  0.00  0.00    +0.184 A 
ATOM      2  C2  <0> A   1       1.187   2.088   0.002  0.00  0.00    -0.311 A 
ATOM      3  C3  <0> A   1       2.406   1.400  -0.013  0.00  0.00    +0.109 A 
ATOM      4  C4  <0> A   1       2.415   0.020  -0.021  0.00  0.00    -0.029 A 
ATOM      5  C5  <0> A   1       1.212  -0.686  -0.013  0.00  0.00    +0.309 A 
ATOM      6  C6  <0> A   1       0.002  -0.004   0.002  0.00  0.00    -0.203 A 
ATOM      7  O3  <0> A   1       1.224  -2.043  -0.021  0.00  0.00    -0.606 OA
ENDROOT
BRANCH   6   8
ATOM      8  N1  <0> A   1      -1.271  -0.760   0.010  0.00  0.00    +0.070 N 
ATOM      9  O1  <0> A   1      -2.325  -0.168   0.023  0.00  0.00    -0.249 OA
ATOM     10  O2  <0> A   1      -1.256  -1.968   0.004  0.00  0.00    -0.156 OA
ENDBRANCH   6   8
BRANCH   4  11
ATOM     11  O4  <0> A   1       3.598  -0.652  -0.036  0.00  0.00    -0.480 OA
ATOM     12  H3  <0> A   1       3.948  -0.851   0.843  0.00  0.00    +0.369 HD
ENDBRANCH   4  11
BRANCH   2  13
ATOM     13  C7  <0> A   1       1.170   3.557   0.009  0.00  0.00    +0.489 C 
ATOM     14  O5  <0> A   1       2.213   4.176   0.003  0.00  0.00    -0.495 OA
ENDBRANCH   2  13
TORSDOF 3
ENDMDL
MODEL       26
REMARK  Name = CHEMBL1244
REMARK  4 active torsions:
REMARK  status: ('A' for Active; 'I' for Inactive)
REMARK    1  A    between atoms: C2_2  and  C7_12
REMARK    2  A    between atoms: C4_4  and  O4_11
REMARK    3  A    between atoms: C5_5  and  O3_10
REMARK    4  A    between atoms: C6_6  and  N1_7
REMARK                            x       y       z     vdW  Elec       q    Type
REMARK                         _______ _______ _______ _____ _____    ______ ____
ROOT
ATOM      1  C1  <0> A   1      -0.017   1.373   0.010  0.00  0.00    +0.171 A 
ATOM      2  C2  <0> A   1       1.187   2.088   0.002  0.00  0.00    -0.183 A 
ATOM      3  C3  <0> A   1       2.406   1.400  -0.013  0.00  0.00    +0.138 A 
ATOM      4  C4  <0> A   1       2.415   0.020  -0.021  0.00  0.00    +0.073 A 
ATOM      5  C5  <0> A   1       1.212  -0.686  -0.013  0.00  0.00    +0.183 A 
ATOM      6  C6  <0> A   1       0.002  -0.004   0.002  0.00  0.00    -0.080 A 
ENDROOT
BRANCH   6   7
ATOM      7  N1  <0> A   1      -1.271  -0.760   0.010  0.00  0.00    +0.035 N 
ATOM      8  O1  <0> A   1      -2.325  -0.168   0.023  0.00  0.00    -0.157 OA
ATOM      9  O2  <0> A   1      -1.256  -1.968   0.004  0.00  0.00    -0.130 OA
ENDBRANCH   6   7
BRANCH   5  10
ATOM     10  O3  <0> A   1       1.224  -2.043  -0.021  0.00  0.00    -0.459 OA
ATOM     11  H3  <0> A   1       1.236  -2.441   0.861  0.00  0.00    +0.409 HD
ENDBRANCH   5  10
BRANCH   4  12
ATOM     12  O4  <0> A   1       3.598  -0.652  -0.036  0.00  0.00    -0.470 OA
ATOM     13  H4  <0> A   1       3.948  -0.851   0.843  0.00  0.00    +0.399 HD
ENDBRANCH   4  12
BRANCH   2  14
ATOM     14  C7  <0> A   1       1.170   3.557   0.009  0.00  0.00    +0.512 C 
ATOM     15  O5  <0> A   1       2.213   4.176   0.003  0.00  0.00    -0.442 OA
ENDBRANCH   2  14
TORSDOF 4
ENDMDL
MODEL       27
REMARK  Name = CHEMBL169465
REMARK  3 active torsions:
REMARK  status: ('A' for Active; 'I' for Inactive)
REMARK    1  A    between atoms: C2_2  and  C8_11
REMARK    2  A    between atoms: C4_4  and  O2_10
REMARK    3  A    between atoms: C6_6  and  C7_7
REMARK                            x       y       z     vdW  Elec       q    Type
REMARK                         _______ _______ _______ _____ _____    ______ ____
ROOT
ATOM      1  C1  <0> A   1      -0.017   1.388   0.010  0.00  0.00    +0.155 A 
ATOM      2  C2  <0> A   1       1.185   2.099   0.002  0.00  0.00    -0.322 A 
ATOM      3  C3  <0> A   1       2.406   1.411  -0.013  0.00  0.00    +0.099 A 
ATOM      4  C4  <0> A   1       2.424   0.031  -0.021  0.00  0.00    -0.046 A 
ATOM      5  C5  <0> A   1       1.229  -0.686  -0.014  0.00  0.00    +0.315 A 
ATOM      6  C6  <0> A   1       0.002  -0.004   0.002  0.00  0.00    -0.205 A 
ATOM      7  O1  <0> A   1       1.251  -2.041  -0.022  0.00  0.00    -0.661 OA
ENDROOT
BRANCH   6   8
ATOM      8  C7  <0> A   1      -1.227  -0.739   0.010  0.00  0.00    +0.305 C 
ATOM      9  N1  <0> A   1      -2.202  -1.321   0.017  0.00  0.00    -0.490 NA
ENDBRANCH   6   8
BRANCH   4  10
ATOM     10  O2  <0> A   1       3.612  -0.632  -0.037  0.00  0.00    -0.486 OA
ATOM     11  H3  <0> A   1       3.964  -0.829   0.842  0.00  0.00    +0.364 HD
ENDBRANCH   4  10
BRANCH   2  12
ATOM     12  C8  <0> A   1       1.170   3.568   0.010  0.00  0.00    +0.477 C 
ATOM     13  O3  <0> A   1       2.214   4.185   0.003  0.00  0.00    -0.504 OA
ENDBRANCH   2  12
TORSDOF 3
ENDMDL
MODEL       28
REMARK  Name = CHEMBL169465
REMARK  4 active torsions:
REMARK  status: ('A' for Active; 'I' for Inactive)
REMARK    1  A    between atoms: C2_2  and  C8_11
REMARK    2  A    between atoms: C4_4  and  O2_10
REMARK    3  A    between atoms: C5_5  and  O1_9
REMARK    4  A    between atoms: C6_6  and  C7_7
REMARK                            x       y       z     vdW  Elec       q    Type
REMARK                         _______ _______ _______ _____ _____    ______ ____
ROOT
ATOM      1  C1  <0> A   1      -0.017   1.388   0.010  0.00  0.00    +0.141 A 
ATOM      2  C2  <0> A   1       1.185   2.099   0.002  0.00  0.00    -0.185 A 
ATOM      3  C3  <0> A   1       2.406   1.411  -0.013  0.00  0.00    +0.109 A 
ATOM      4  C4  <0> A   1       2.424   0.031  -0.021  0.00  0.00    +0.072 A 
ATOM      5  C5  <0> A   1       1.229  -0.686  -0.014  0.00  0.00    +0.163 A 
ATOM      6  C6  <0> A   1       0.002  -0.004   0.002  0.00  0.00    -0.051 A 
ENDROOT
BRANCH   6   7
ATOM      7  C7  <0> A   1      -1.227  -0.739   0.010  0.00  0.00    +0.251 C 
ATOM      8  N1  <0> A   1      -2.202  -1.321   0.017  0.00  0.00    -0.394 NA
ENDBRANCH   6   7
BRANCH   5   9
ATOM      9  O1  <0> A   1       1.251  -2.041  -0.022  0.00  0.00    -0.478 OA
ATOM     10  H3  <0> A   1       1.266  -2.439   0.859  0.00  0.00    +0.402 HD
ENDBRANCH   5   9
BRANCH   4  11
ATOM     11  O2  <0> A   1       3.612  -0.632  -0.037  0.00  0.00    -0.478 OA
ATOM     12  H4  <0> A   1       3.964  -0.829   0.842  0.00  0.00    +0.395 HD
ENDBRANCH   4  11
BRANCH   2  13
ATOM     13  C8  <0> A   1       1.170   3.568   0.010  0.00  0.00    +0.502 C 
ATOM     14  O3  <0> A   1       2.214   4.185   0.003  0.00  0.00    -0.449 OA
ENDBRANCH   2  13
TORSDOF 4
ENDMDL
MODEL       29
REMARK  Name = CHEMBL168600
REMARK  12 active torsions:
REMARK  status: ('A' for Active; 'I' for Inactive)
REMARK    1  A    between atoms: C1_1  and  O1_2
REMARK    2  A    between atoms: O1_2  and  C2_3
REMARK    3  A    between atoms: C4_5  and  C10_13
REMARK    4  A    between atoms: C6_7  and  O3_11
REMARK    5  A    between atoms: C7_8  and  O2_9
REMARK    6  A    between atoms: O2_9  and  C8_10
REMARK    7  A    between atoms: O3_11  and  C9_12
REMARK    8  A    between atoms: C10_13  and  C11_15
REMARK    9  A    between atoms: C12_16  and  C13_17
REMARK   10  A    between atoms: C15_19  and  N1_25
REMARK   11  A    between atoms: C16_20  and  O6_24
REMARK   12  A    between atoms: C17_21  and  O5_23
REMARK                            x       y       z     vdW  Elec       q    Type
REMARK                         _______ _______ _______ _____ _____    ______ ____
ROOT
ATOM      1  C11 <0> A   1       3.025  -0.276  -5.321  0.00  0.00    -0.088 C 
ATOM      2  C12 <0> A   1       3.578   0.472  -6.302  0.00  0.00    +0.146 C 
ENDROOT
BRANCH   2   3
ATOM      3  C13 <0> A   1       4.231  -0.182  -7.445  0.00  0.00    -0.069 A 
ATOM      4  C14 <0> A   1       4.809   0.590  -8.460  0.00  0.00    +0.144 A 
ATOM      5  C15 <0> A   1       5.420  -0.025  -9.529  0.00  0.00    -0.067 A 
ATOM      6  C16 <0> A   1       5.465  -1.411  -9.604  0.00  0.00    +0.165 A 
ATOM      7  C17 <0> A   1       4.892  -2.188  -8.598  0.00  0.00    +0.086 A 
ATOM      8  C18 <0> A   1       4.282  -1.579  -7.519  0.00  0.00    +0.093 A 
BRANCH   5   9
ATOM      9  N1  <0> A   1       6.030   0.792 -10.601  0.00  0.00    +0.034 N 
ATOM     10  O7  <0> A   1       5.992   1.999 -10.538  0.00  0.00    -0.157 OA
ATOM     11  O8  <0> A   1       6.567   0.254 -11.541  0.00  0.00    -0.129 OA
ENDBRANCH   5   9
BRANCH   7  12
ATOM     12  O5  <0> A   1       4.938  -3.545  -8.676  0.00  0.00    -0.471 OA
ATOM     13  H16 <0> A   1       5.718  -3.936  -8.261  0.00  0.00    +0.399 HD
ENDBRANCH   7  12
BRANCH   6  14
ATOM     14  O6  <0> A   1       6.070  -2.013 -10.661  0.00  0.00    -0.459 OA
ATOM     15  H17 <0> A   1       7.012  -2.185 -10.530  0.00  0.00    +0.407 HD
ENDBRANCH   6  14
ENDBRANCH   2   3
BRANCH   1  16
ATOM     16  C10 <0> A   1       2.395   0.355  -4.218  0.00  0.00    +0.426 C 
ATOM     17  O4  <0> A   1       2.352   1.571  -4.155  0.00  0.00    -0.446 OA
BRANCH  16  20
ATOM     18  C2  <0> A   1       0.606  -0.608  -1.056  0.00  0.00    +0.140 A 
ATOM     19  C3  <0> A   1       1.171   0.159  -2.058  0.00  0.00    -0.026 A 
ATOM     20  C4  <0> A   1       1.792  -0.462  -3.146  0.00  0.00    -0.090 A 
ATOM     21  C5  <0> A   1       1.840  -1.856  -3.216  0.00  0.00    -0.049 A 
ATOM     22  C6  <0> A   1       1.274  -2.618  -2.212  0.00  0.00    +0.139 A 
ATOM     23  C7  <0> A   1       0.661  -1.997  -1.127  0.00  0.00    +0.061 A 
BRANCH  18  25
ATOM     24  C1  <0> A   1      -0.017   1.425   0.010  0.00  0.00    +0.249 C 
ATOM     25  O1  <0> A   1       0.002  -0.004   0.002  0.00  0.00    -0.299 OA
ENDBRANCH  18  25
BRANCH  23  26
ATOM     26  O2  <0> A   1       0.109  -2.749  -0.138  0.00  0.00    -0.312 OA
ATOM     27  C8  <0> A   1      -1.262  -3.119  -0.292  0.00  0.00    +0.226 C 
ENDBRANCH  23  26
BRANCH  22  28
ATOM     28  O3  <0> A   1       1.321  -3.976  -2.281  0.00  0.00    -0.299 OA
ATOM     29  C9  <0> A   1       1.970  -4.546  -3.419  0.00  0.00    +0.245 C 
ENDBRANCH  22  28
ENDBRANCH  16  20
ENDBRANCH   1  16
TORSDOF 9
ENDMDL
MODEL       30
REMARK  Name = CHEMBL168600
REMARK  11 active torsions:
REMARK  status: ('A' for Active; 'I' for Inactive)
REMARK    1  A    between atoms: C1_1  and  O1_2
REMARK    2  A    between atoms: O1_2  and  C2_3
REMARK    3  A    between atoms: C4_5  and  C10_13
REMARK    4  A    between atoms: C6_7  and  O3_11
REMARK    5  A    between atoms: C7_8  and  O2_9
REMARK    6  A    between atoms: O2_9  and  C8_10
REMARK    7  A    between atoms: O3_11  and  C9_12
REMARK    8  A    between atoms: C10_13  and  C11_15
REMARK    9  A    between atoms: C12_16  and  C13_17
REMARK   10  A    between atoms: C15_19  and  N1_25
REMARK   11  A    between atoms: C17_21  and  O5_23
REMARK                            x       y       z     vdW  Elec       q    Type
REMARK                         _______ _______ _______ _____ _____    ______ ____
ROOT
ATOM      1  C10 <0> A   1       2.455   0.310   4.191  0.00  0.00    +0.430 C 
ATOM      2  O4  <0> A   1       2.403   1.526   4.147  0.00  0.00    -0.477 OA
ENDROOT
BRANCH   1   5
ATOM      3  C2  <0> A   1       0.626  -0.619   1.042  0.00  0.00    +0.136 A 
ATOM      4  C3  <0> A   1       1.200   0.137   2.047  0.00  0.00    -0.035 A 
ATOM      5  C4  <0> A   1       1.841  -0.495   3.116  0.00  0.00    -0.076 A 
ATOM      6  C5  <0> A   1       1.900  -1.891   3.166  0.00  0.00    -0.042 A 
ATOM      7  C6  <0> A   1       1.325  -2.642   2.158  0.00  0.00    +0.138 A 
ATOM      8  C7  <0> A   1       0.682  -2.009   1.097  0.00  0.00    +0.050 A 
BRANCH   3  10
ATOM      9  C1  <0> A   1      -0.017   1.425   0.010  0.00  0.00    +0.244 C 
ATOM     10  O1  <0> A   1       0.002  -0.004   0.002  0.00  0.00    -0.303 OA
ENDBRANCH   3  10
BRANCH   8  11
ATOM     11  O2  <0> A   1       0.113  -2.750   0.110  0.00  0.00    -0.313 OA
ATOM     12  C8  <0> A   1       0.937  -3.085  -1.008  0.00  0.00    +0.218 C 
ENDBRANCH   8  11
BRANCH   7  13
ATOM     13  O3  <0> A   1       1.382  -4.000   2.206  0.00  0.00    -0.303 OA
ATOM     14  C9  <0> A   1       2.052  -4.582   3.325  0.00  0.00    +0.246 C 
ENDBRANCH   7  13
ENDBRANCH   1   5
BRANCH   1  15
ATOM     15  C11 <0> A   1       3.105  -0.333   5.275  0.00  0.00    -0.188 C 
ATOM     16  C12 <0> A   1       3.668   0.404   6.260  0.00  0.00    +0.199 C 
BRANCH  16  17
ATOM     17  C13 <0> A   1       4.341  -0.262   7.383  0.00  0.00    -0.221 A 
ATOM     18  C14 <0> A   1       4.919   0.499   8.406  0.00  0.00    +0.171 A 
ATOM     19  C15 <0> A   1       5.549  -0.128   9.458  0.00  0.00    -0.198 A 
ATOM     20  C16 <0> A   1       5.613  -1.514   9.507  0.00  0.00    +0.305 A 
ATOM     21  C17 <0> A   1       5.040  -2.280   8.491  0.00  0.00    -0.019 A 
ATOM     22  C18 <0> A   1       4.402  -1.660   7.436  0.00  0.00    +0.084 A 
ATOM     23  O6  <0> A   1       6.236  -2.127  10.547  0.00  0.00    -0.604 OA
BRANCH  19  24
ATOM     24  N1  <0> A   1       6.160   0.678  10.539  0.00  0.00    +0.069 N 
ATOM     25  O7  <0> A   1       6.106   1.885  10.497  0.00  0.00    -0.248 OA
ATOM     26  O8  <0> A   1       6.714   0.129  11.463  0.00  0.00    -0.154 OA
ENDBRANCH  19  24
BRANCH  21  27
ATOM     27  O5  <0> A   1       5.107  -3.637   8.543  0.00  0.00    -0.480 OA
ATOM     28  H16 <0> A   1       4.363  -4.050   9.004  0.00  0.00    +0.370 HD
ENDBRANCH  21  27
ENDBRANCH  16  17
ENDBRANCH   1  15
TORSDOF 8
ENDMDL
MODEL       31
REMARK  Name = CHEMBL169033
REMARK  4 active torsions:
REMARK  status: ('A' for Active; 'I' for Inactive)
REMARK    1  A    between atoms: C1_1  and  C2_2
REMARK    2  A    between atoms: C2_2  and  C3_4
REMARK    3  A    between atoms: C5_6  and  N1_12
REMARK    4  A    between atoms: C7_8  and  O2_10
REMARK                            x       y       z     vdW  Elec       q    Type
REMARK                         _______ _______ _______ _____ _____    ______ ____
ROOT
ATOM      1  C3  <0> A   1      -0.000  -0.732  -1.274  0.00  0.00    -0.296 A 
ATOM      2  C4  <0> A   1       0.013  -2.131  -1.284  0.00  0.00    +0.196 A 
ATOM      3  C5  <0> A   1       0.010  -2.811  -2.481  0.00  0.00    -0.204 A 
ATOM      4  C6  <0> A   1      -0.005  -2.111  -3.681  0.00  0.00    +0.309 A 
ATOM      5  C7  <0> A   1      -0.018  -0.716  -3.680  0.00  0.00    -0.027 A 
ATOM      6  C8  <0> A   1      -0.021  -0.027  -2.484  0.00  0.00    +0.097 A 
ATOM      7  O3  <0> A   1      -0.008  -2.787  -4.859  0.00  0.00    -0.606 OA
ENDROOT
BRANCH   1   9
ATOM      8  C1  <0> A   1      -0.018   1.503   0.010  0.00  0.00    +0.058 C 
ATOM      9  C2  <0> A   1       0.002  -0.004   0.002  0.00  0.00    +0.407 C 
ATOM     10  O1  <0> A   1       0.020  -0.616   1.049  0.00  0.00    -0.490 OA
ENDBRANCH   1   9
BRANCH   3  11
ATOM     11  N1  <0> A   1       0.025  -4.291  -2.490  0.00  0.00    +0.069 N 
ATOM     12  O4  <0> A   1       0.039  -4.902  -1.447  0.00  0.00    -0.247 OA
ATOM     13  O5  <0> A   1       0.023  -4.889  -3.541  0.00  0.00    -0.155 OA
ENDBRANCH   3  11
BRANCH   5  14
ATOM     14  O2  <0> A   1      -0.033  -0.035  -4.857  0.00  0.00    -0.480 OA
ATOM     15  H6  <0> A   1      -0.920   0.154  -5.191  0.00  0.00    +0.369 HD
ENDBRANCH   5  14
TORSDOF 3
ENDMDL
MODEL       32
REMARK  Name = CHEMBL169033
REMARK  5 active torsions:
REMARK  status: ('A' for Active; 'I' for Inactive)
REMARK    1  A    between atoms: C1_1  and  C2_2
REMARK    2  A    between atoms: C2_2  and  C3_4
REMARK    3  A    between atoms: C5_6  and  N1_12
REMARK    4  A    between atoms: C6_7  and  O3_11
REMARK    5  A    between atoms: C7_8  and  O2_10
REMARK                            x       y       z     vdW  Elec       q    Type
REMARK                         _______ _______ _______ _____ _____    ______ ____
ROOT
ATOM      1  C3  <0> A   1      -1.260  -0.756   0.010  0.00  0.00    -0.163 A 
ATOM      2  C4  <0> A   1      -1.243  -2.156   0.008  0.00  0.00    +0.176 A 
ATOM      3  C5  <0> A   1      -2.427  -2.858   0.016  0.00  0.00    -0.078 A 
ATOM      4  C6  <0> A   1      -3.640  -2.181   0.026  0.00  0.00    +0.183 A 
ATOM      5  C7  <0> A   1      -3.665  -0.786   0.028  0.00  0.00    +0.074 A 
ATOM      6  C8  <0> A   1      -2.483  -0.074   0.025  0.00  0.00    +0.129 A 
ENDROOT
BRANCH   1   8
ATOM      7  C1  <0> A   1      -0.018   1.503   0.010  0.00  0.00    +0.091 C 
ATOM      8  C2  <0> A   1       0.002  -0.004   0.002  0.00  0.00    +0.397 C 
ATOM      9  O1  <0> A   1       1.061  -0.596  -0.011  0.00  0.00    -0.438 OA
ENDBRANCH   1   8
BRANCH   3  10
ATOM     10  N1  <0> A   1      -2.408  -4.338   0.014  0.00  0.00    +0.034 N 
ATOM     11  O4  <0> A   1      -1.353  -4.928   0.005  0.00  0.00    -0.156 OA
ATOM     12  O5  <0> A   1      -3.447  -4.956   0.021  0.00  0.00    -0.129 OA
ENDBRANCH   3  10
BRANCH   5  13
ATOM     13  O2  <0> A   1      -4.855  -0.128   0.037  0.00  0.00    -0.470 OA
ATOM     14  H6  <0> A   1      -5.193   0.062   0.923  0.00  0.00    +0.399 HD
ENDBRANCH   5  13
BRANCH   4  15
ATOM     15  O3  <0> A   1      -4.805  -2.878   0.034  0.00  0.00    -0.459 OA
ATOM     16  H7  <0> A   1      -5.135  -3.082   0.920  0.00  0.00    +0.409 HD
ENDBRANCH   4  15
TORSDOF 4
ENDMDL
MODEL       33
REMARK  Name = CHEMBL1089538
REMARK  11 active torsions:
REMARK  status: ('A' for Active; 'I' for Inactive)
REMARK    1  A    between atoms: C1_1  and  C2_2
REMARK    2  A    between atoms: C2_2  and  C3_3
REMARK    3  A    between atoms: C2_2  and  C4_4
REMARK    4  A    between atoms: C4_4  and  O2_6
REMARK    5  A    between atoms: O2_6  and  C5_7
REMARK    6  A    between atoms: C5_7  and  C6_8
REMARK    7  A    between atoms: C5_7  and  O3_9
REMARK    8  A    between atoms: O3_9  and  C7_10
REMARK    9  A    between atoms: C7_10  and  C8_12
REMARK   10  A    between atoms: C12_16  and  O8_25
REMARK   11  A    between atoms: C14_18  and  N1_21
REMARK                            x       y       z     vdW  Elec       q    Type
REMARK                         _______ _______ _______ _____ _____    ______ ____
ROOT
ATOM      1  C8  <0> A   1      -3.771  -0.382  -2.974  0.00  0.00    -0.267 C 
ATOM      2  C9  <0> A   1      -3.768   0.851  -3.555  0.00  0.00    +0.099 C 
ATOM      3  C10 <0> A   1      -4.180   0.995  -4.892  0.00  0.00    -0.216 A 
ATOM      4  C11 <0> A   1      -4.246   2.185  -5.665  0.00  0.00    +0.109 A 
ATOM      5  C12 <0> A   1      -4.671   2.155  -6.956  0.00  0.00    +0.018 A 
ATOM      6  C13 <0> A   1      -5.057   0.958  -7.569  0.00  0.00    +0.331 A 
ATOM      7  C14 <0> A   1      -5.006  -0.222  -6.847  0.00  0.00    -0.165 A 
ATOM      8  C15 <0> A   1      -4.576  -0.200  -5.538  0.00  0.00    +0.011 A 
ATOM      9  S1  <0> A   1      -4.355  -1.440  -4.287  0.00  0.00    +0.115 S 
ATOM     10  O7  <0> A   1      -5.479   0.953  -8.861  0.00  0.00    -0.621 OA
ATOM     11 Cl1  <0> A   1      -3.256   2.239  -2.648  0.00  0.00    -0.034 Cl
ENDROOT
BRANCH   7  12
ATOM     12  N1  <0> A   1      -5.411  -1.499  -7.477  0.00  0.00    +0.062 N 
ATOM     13  O5  <0> A   1      -4.591  -2.175  -8.055  0.00  0.00    -0.161 OA
ATOM     14  O6  <0> A   1      -6.561  -1.867  -7.413  0.00  0.00    -0.160 OA
ENDBRANCH   7  12
BRANCH   1  15
ATOM     15  C7  <0> A   1      -3.385  -0.749  -1.609  0.00  0.00    +0.560 C 
ATOM     16  O4  <0> A   1      -3.005   0.108  -0.834  0.00  0.00    -0.473 OA
BRANCH  15  17
ATOM     17  O3  <0> A   1      -3.450  -2.036  -1.213  0.00  0.00    -0.346 OA
BRANCH  17  18
ATOM     18  C5  <0> A   1      -2.944  -2.341   0.088  0.00  0.00    +0.391 C 
ATOM     19  C6  <0> A   1      -1.484  -1.894   0.186  0.00  0.00    +0.082 C 
BRANCH  18  20
ATOM     20  O2  <0> A   1      -3.719  -1.654   1.073  0.00  0.00    -0.349 OA
BRANCH  20  21
ATOM     21  C4  <0> A   1      -4.969  -2.097   1.284  0.00  0.00    +0.461 C 
ATOM     22  O1  <0> A   1      -5.423  -2.976   0.590  0.00  0.00    -0.489 OA
BRANCH  21  24
ATOM     23  C1  <0> A   1      -7.176  -2.176   2.410  0.00  0.00    +0.062 C 
ATOM     24  C2  <0> A   1      -5.805  -1.498   2.385  0.00  0.00    +0.023 C 
ATOM     25  C3  <0> A   1      -5.106  -1.711   3.729  0.00  0.00    +0.058 C 
ENDBRANCH  21  24
ENDBRANCH  20  21
ENDBRANCH  18  20
ENDBRANCH  17  18
ENDBRANCH  15  17
ENDBRANCH   1  15
BRANCH   5  26
ATOM     26  O8  <0> A   1      -4.723   3.313  -7.668  0.00  0.00    -0.478 OA
ATOM     27  H13 <0> A   1      -3.906   3.519  -8.144  0.00  0.00    +0.378 HD
ENDBRANCH   5  26
TORSDOF 8
ENDMDL
MODEL       34
REMARK  Name = CHEMBL1089538
REMARK  12 active torsions:
REMARK  status: ('A' for Active; 'I' for Inactive)
REMARK    1  A    between atoms: C1_1  and  C2_2
REMARK    2  A    between atoms: C2_2  and  C3_3
REMARK    3  A    between atoms: C2_2  and  C4_4
REMARK    4  A    between atoms: C4_4  and  O2_6
REMARK    5  A    between atoms: O2_6  and  C5_7
REMARK    6  A    between atoms: C5_7  and  C6_8
REMARK    7  A    between atoms: C5_7  and  O3_9
REMARK    8  A    between atoms: O3_9  and  C7_10
REMARK    9  A    between atoms: C7_10  and  C8_12
REMARK   10  A    between atoms: C12_16  and  O8_25
REMARK   11  A    between atoms: C13_17  and  O7_24
REMARK   12  A    between atoms: C14_18  and  N1_21
REMARK                            x       y       z     vdW  Elec       q    Type
REMARK                         _______ _______ _______ _____ _____    ______ ____
ROOT
ATOM      1  C8  <0> A   1      -4.141   0.731   2.353  0.00  0.00    -0.177 C 
ATOM      2  C9  <0> A   1      -3.699   0.813   3.639  0.00  0.00    +0.028 C 
ATOM      3  C10 <0> A   1      -4.353   1.659   4.553  0.00  0.00    -0.084 A 
ATOM      4  C11 <0> A   1      -4.045   1.877   5.922  0.00  0.00    +0.135 A 
ATOM      5  C12 <0> A   1      -4.783   2.736   6.674  0.00  0.00    +0.095 A 
ATOM      6  C13 <0> A   1      -5.867   3.434   6.132  0.00  0.00    +0.192 A 
ATOM      7  C14 <0> A   1      -6.198   3.247   4.801  0.00  0.00    -0.012 A 
ATOM      8  C15 <0> A   1      -5.455   2.378   4.032  0.00  0.00    -0.091 A 
ATOM      9  S1  <0> A   1      -5.522   1.861   2.334  0.00  0.00    +0.217 S 
ATOM     10 Cl1  <0> A   1      -2.332  -0.127   4.151  0.00  0.00    +0.005 Cl
ENDROOT
BRANCH   7  11
ATOM     11  N1  <0> A   1      -7.342   3.975   4.208  0.00  0.00    +0.022 N 
ATOM     12  O5  <0> A   1      -7.171   5.058   3.697  0.00  0.00    -0.124 OA
ATOM     13  O6  <0> A   1      -8.448   3.488   4.235  0.00  0.00    -0.109 OA
ENDBRANCH   7  11
BRANCH   1  14
ATOM     14  C7  <0> A   1      -3.610  -0.079   1.254  0.00  0.00    +0.549 C 
ATOM     15  O4  <0> A   1      -2.651  -0.804   1.442  0.00  0.00    -0.441 OA
BRANCH  14  16
ATOM     16  O3  <0> A   1      -4.184  -0.022   0.035  0.00  0.00    -0.343 OA
BRANCH  16  17
ATOM     17  C5  <0> A   1      -3.542  -0.743  -1.018  0.00  0.00    +0.400 C 
ATOM     18  C6  <0> A   1      -2.096  -0.264  -1.158  0.00  0.00    +0.089 C 
BRANCH  17  19
ATOM     19  O2  <0> A   1      -3.553  -2.140  -0.715  0.00  0.00    -0.348 OA
BRANCH  19  20
ATOM     20  C4  <0> A   1      -4.736  -2.770  -0.792  0.00  0.00    +0.462 C 
ATOM     21  O1  <0> A   1      -5.743  -2.141  -1.015  0.00  0.00    -0.489 OA
BRANCH  20  23
ATOM     22  C1  <0> A   1      -4.286  -4.623   0.793  0.00  0.00    +0.059 C 
ATOM     23  C2  <0> A   1      -4.808  -4.263  -0.599  0.00  0.00    +0.027 C 
ATOM     24  C3  <0> A   1      -6.260  -4.726  -0.735  0.00  0.00    +0.064 C 
ENDBRANCH  20  23
ENDBRANCH  19  20
ENDBRANCH  17  19
ENDBRANCH  16  17
ENDBRANCH  14  16
ENDBRANCH   1  14
BRANCH   6  25
ATOM     25  O7  <0> A   1      -6.590   4.287   6.905  0.00  0.00    -0.467 OA
ATOM     26  H13 <0> A   1      -6.260   5.196   6.902  0.00  0.00    +0.412 HD
ENDBRANCH   6  25
BRANCH   5  27
ATOM     27  O8  <0> A   1      -4.460   2.921   7.983  0.00  0.00    -0.468 OA
ATOM     28  H14 <0> A   1      -3.827   3.636   8.134  0.00  0.00    +0.401 HD
ENDBRANCH   5  27
TORSDOF 9
ENDMDL
MODEL       35
REMARK  Name = CHEMBL1089538
REMARK  11 active torsions:
REMARK  status: ('A' for Active; 'I' for Inactive)
REMARK    1  A    between atoms: C1_1  and  C2_2
REMARK    2  A    between atoms: C2_2  and  C3_3
REMARK    3  A    between atoms: C2_2  and  C4_4
REMARK    4  A    between atoms: C4_4  and  O2_6
REMARK    5  A    between atoms: O2_6  and  C5_7
REMARK    6  A    between atoms: C5_7  and  C6_8
REMARK    7  A    between atoms: C5_7  and  O3_9
REMARK    8  A    between atoms: O3_9  and  C7_10
REMARK    9  A    between atoms: C7_10  and  C8_12
REMARK   10  A    between atoms: C12_16  and  O8_25
REMARK   11  A    between atoms: C14_18  and  N1_21
REMARK                            x       y       z     vdW  Elec       q    Type
REMARK                         _______ _______ _______ _____ _____    ______ ____
ROOT
ATOM      1  C8  <0> A   1      -4.908  -0.220   2.317  0.00  0.00    -0.267 C 
ATOM      2  C9  <0> A   1      -5.403   1.026   2.563  0.00  0.00    +0.099 C 
ATOM      3  C10 <0> A   1      -6.186   1.255   3.708  0.00  0.00    -0.216 A 
ATOM      4  C11 <0> A   1      -6.785   2.472   4.131  0.00  0.00    +0.109 A 
ATOM      5  C12 <0> A   1      -7.518   2.526   5.275  0.00  0.00    +0.018 A 
ATOM      6  C13 <0> A   1      -7.711   1.394   6.073  0.00  0.00    +0.331 A 
ATOM      7  C14 <0> A   1      -7.143   0.190   5.692  0.00  0.00    -0.165 A 
ATOM      8  C15 <0> A   1      -6.398   0.126   4.535  0.00  0.00    +0.011 A 
ATOM      9  S1  <0> A   1      -5.525  -1.172   3.695  0.00  0.00    +0.119 S 
ATOM     10  O7  <0> A   1      -8.448   1.474   7.212  0.00  0.00    -0.621 OA
ATOM     11 Cl1  <0> A   1      -5.067   2.327   1.464  0.00  0.00    -0.034 Cl
ENDROOT
BRANCH   7  12
ATOM     12  N1  <0> A   1      -7.335  -1.020   6.523  0.00  0.00    +0.062 N 
ATOM     13  O5  <0> A   1      -8.277  -1.750   6.319  0.00  0.00    -0.161 OA
ATOM     14  O6  <0> A   1      -6.549  -1.278   7.405  0.00  0.00    -0.160 OA
ENDBRANCH   7  12
BRANCH   1  15
ATOM     15  C7  <0> A   1      -4.080  -0.669   1.195  0.00  0.00    +0.559 C 
ATOM     16  O4  <0> A   1      -3.746   0.120   0.332  0.00  0.00    -0.479 OA
BRANCH  15  17
ATOM     17  O3  <0> A   1      -3.688  -1.957   1.119  0.00  0.00    -0.344 OA
BRANCH  17  18
ATOM     18  C5  <0> A   1      -2.977  -2.351  -0.056  0.00  0.00    +0.392 C 
ATOM     19  C6  <0> A   1      -2.867  -3.876  -0.098  0.00  0.00    +0.082 C 
BRANCH  18  20
ATOM     20  O2  <0> A   1      -1.668  -1.779  -0.035  0.00  0.00    -0.352 OA
BRANCH  20  21
ATOM     21  C4  <0> A   1      -0.852  -2.160   0.961  0.00  0.00    +0.460 C 
ATOM     22  O1  <0> A   1      -1.268  -2.874   1.842  0.00  0.00    -0.482 OA
BRANCH  21  24
ATOM     23  C1  <0> A   1       1.286  -2.269   2.211  0.00  0.00    +0.062 C 
ATOM     24  C2  <0> A   1       0.582  -1.697   0.979  0.00  0.00    +0.020 C 
ATOM     25  C3  <0> A   1       1.291  -2.184  -0.286  0.00  0.00    +0.057 C 
ENDBRANCH  21  24
ENDBRANCH  20  21
ENDBRANCH  18  20
ENDBRANCH  17  18
ENDBRANCH  15  17
ENDBRANCH   1  15
BRANCH   5  26
ATOM     26  O8  <0> A   1      -8.077   3.708   5.651  0.00  0.00    -0.478 OA
ATOM     27  H13 <0> A   1      -8.967   3.852   5.302  0.00  0.00    +0.378 HD
ENDBRANCH   5  26
TORSDOF 8
ENDMDL
MODEL       36
REMARK  Name = CHEMBL1089538
REMARK  12 active torsions:
REMARK  status: ('A' for Active; 'I' for Inactive)
REMARK    1  A    between atoms: C1_1  and  C2_2
REMARK    2  A    between atoms: C2_2  and  C3_3
REMARK    3  A    between atoms: C2_2  and  C4_4
REMARK    4  A    between atoms: C4_4  and  O2_6
REMARK    5  A    between atoms: O2_6  and  C5_7
REMARK    6  A    between atoms: C5_7  and  C6_8
REMARK    7  A    between atoms: C5_7  and  O3_9
REMARK    8  A    between atoms: O3_9  and  C7_10
REMARK    9  A    between atoms: C7_10  and  C8_12
REMARK   10  A    between atoms: C12_16  and  O8_25
REMARK   11  A    between atoms: C13_17  and  O7_24
REMARK   12  A    between atoms: C14_18  and  N1_21
REMARK                            x       y       z     vdW  Elec       q    Type
REMARK                         _______ _______ _______ _____ _____    ______ ____
ROOT
ATOM      1  C8  <0> A   1      -3.461  -4.186   0.191  0.00  0.00    -0.177 C 
ATOM      2  C9  <0> A   1      -3.181  -5.023   1.229  0.00  0.00    +0.028 C 
ATOM      3  C10 <0> A   1      -3.379  -6.408   1.085  0.00  0.00    -0.084 A 
ATOM      4  C11 <0> A   1      -3.147  -7.431   2.042  0.00  0.00    +0.135 A 
ATOM      5  C12 <0> A   1      -3.390  -8.735   1.742  0.00  0.00    +0.095 A 
ATOM      6  C13 <0> A   1      -3.876  -9.116   0.486  0.00  0.00    +0.192 A 
ATOM      7  C14 <0> A   1      -4.114  -8.147  -0.472  0.00  0.00    -0.013 A 
ATOM      8  C15 <0> A   1      -3.870  -6.823  -0.176  0.00  0.00    -0.091 A 
ATOM      9  S1  <0> A   1      -4.037  -5.302  -1.077  0.00  0.00    +0.220 S 
ATOM     10 Cl1  <0> A   1      -2.582  -4.382   2.727  0.00  0.00    +0.005 Cl
ENDROOT
BRANCH   7  11
ATOM     11  N1  <0> A   1      -4.627  -8.529  -1.807  0.00  0.00    +0.023 N 
ATOM     12  O5  <0> A   1      -5.819  -8.582  -2.004  0.00  0.00    -0.125 OA
ATOM     13  O6  <0> A   1      -3.855  -8.788  -2.700  0.00  0.00    -0.109 OA
ENDBRANCH   7  11
BRANCH   1  14
ATOM     14  C7  <0> A   1      -3.328  -2.728   0.132  0.00  0.00    +0.548 C 
ATOM     15  O4  <0> A   1      -2.915  -2.116   1.098  0.00  0.00    -0.447 OA
BRANCH  14  16
ATOM     16  O3  <0> A   1      -3.664  -2.065  -0.993  0.00  0.00    -0.342 OA
BRANCH  16  17
ATOM     17  C5  <0> A   1      -3.616  -0.638  -0.944  0.00  0.00    +0.398 C 
ATOM     18  C6  <0> A   1      -4.290  -0.062  -2.191  0.00  0.00    +0.090 C 
BRANCH  17  19
ATOM     19  O2  <0> A   1      -2.254  -0.208  -0.898  0.00  0.00    -0.350 OA
BRANCH  19  20
ATOM     20  C4  <0> A   1      -1.484  -0.507  -1.956  0.00  0.00    +0.462 C 
ATOM     21  O1  <0> A   1      -1.922  -1.198  -2.846  0.00  0.00    -0.483 OA
BRANCH  20  23
ATOM     22  C1  <0> A   1       0.729  -0.492  -0.838  0.00  0.00    +0.058 C 
ATOM     23  C2  <0> A   1      -0.074   0.020  -2.035  0.00  0.00    +0.024 C 
ATOM     24  C3  <0> A   1       0.578  -0.464  -3.332  0.00  0.00    +0.064 C 
ENDBRANCH  20  23
ENDBRANCH  19  20
ENDBRANCH  17  19
ENDBRANCH  16  17
ENDBRANCH  14  16
ENDBRANCH   1  14
BRANCH   6  25
ATOM     25  O7  <0> A   1      -4.111 -10.426   0.211  0.00  0.00    -0.467 OA
ATOM     26  H13 <0> A   1      -5.007 -10.718   0.425  0.00  0.00    +0.412 HD
ENDBRANCH   6  25
BRANCH   5  27
ATOM     27  O8  <0> A   1      -3.156  -9.689   2.683  0.00  0.00    -0.468 OA
ATOM     28  H14 <0> A   1      -3.917  -9.878   3.249  0.00  0.00    +0.401 HD
ENDBRANCH   5  27
TORSDOF 9
ENDMDL
MODEL       37
REMARK  Name = CHEMBL63052
REMARK  10 active torsions:
REMARK  status: ('A' for Active; 'I' for Inactive)
REMARK    1  A    between atoms: C3_3  and  O6_25
REMARK    2  A    between atoms: C4_4  and  O5_24
REMARK    3  A    between atoms: C6_6  and  C7_7
REMARK    4  A    between atoms: N1_9  and  C8_10
REMARK    5  A    between atoms: C8_10  and  C9_11
REMARK    6  A    between atoms: C9_11  and  C10_12
REMARK    7  A    between atoms: C10_12  and  N2_13
REMARK    8  A    between atoms: C11_14  and  C12_16
REMARK    9  A    between atoms: C15_19  and  O4_23
REMARK   10  A    between atoms: C16_20  and  O3_22
REMARK                            x       y       z     vdW  Elec       q    Type
REMARK                         _______ _______ _______ _____ _____    ______ ____
ROOT
ATOM      1  C9  <0> A   1      -4.877   0.121   0.051  0.00  0.00    +0.014 C 
ENDROOT
BRANCH   1   2
ATOM      2  C8  <0> A   1      -3.700  -0.856   0.034  0.00  0.00    +0.274 C 
BRANCH   2   5
ATOM      3  C7  <0> A   1      -1.265  -0.761   0.011  0.00  0.00    +0.561 C 
ATOM      4  O1  <0> A   1      -1.247  -1.977   0.004  0.00  0.00    -0.528 OA
ATOM      5  N1  <0> A   1      -2.442  -0.105   0.026  0.00  0.00    -0.727 N 
ATOM      6  H4  <0> A   1      -2.457   0.865   0.031  0.00  0.00    +0.401 HD
BRANCH   3  12
ATOM      7  C1  <0> A   1      -0.017   1.393   0.010  0.00  0.00    +0.056 A 
ATOM      8  C2  <0> A   1       1.167   2.098   0.002  0.00  0.00    +0.005 A 
ATOM      9  C3  <0> A   1       2.380   1.423  -0.013  0.00  0.00    +0.110 A 
ATOM     10  C4  <0> A   1       2.406   0.030  -0.021  0.00  0.00    +0.075 A 
ATOM     11  C5  <0> A   1       1.223  -0.683  -0.013  0.00  0.00    +0.080 A 
ATOM     12  C6  <0> A   1       0.002  -0.004   0.002  0.00  0.00    -0.131 A 
BRANCH  10  13
ATOM     13  O5  <0> A   1       3.597  -0.628  -0.037  0.00  0.00    -0.483 OA
ATOM     14  H17 <0> A   1       3.950  -0.823   0.842  0.00  0.00    +0.391 HD
ENDBRANCH  10  13
BRANCH   9  15
ATOM     15  O6  <0> A   1       3.544   2.123  -0.022  0.00  0.00    -0.486 OA
ATOM     16  H18 <0> A   1       3.890   2.321   0.859  0.00  0.00    +0.394 HD
ENDBRANCH   9  15
ENDBRANCH   3  12
ENDBRANCH   2   5
ENDBRANCH   1   2
BRANCH   1  17
ATOM     17  C10 <0> A   1      -6.191  -0.664   0.060  0.00  0.00    +0.274 C 
BRANCH  17  18
ATOM     18  N2  <0> A   1      -7.318   0.272   0.076  0.00  0.00    -0.727 N 
ATOM     19  C11 <0> A   1      -8.582  -0.196   0.086  0.00  0.00    +0.561 C 
ATOM     20  O2  <0> A   1      -8.786  -1.395   0.082  0.00  0.00    -0.528 OA
ATOM     21  H11 <0> A   1      -7.155   1.228   0.079  0.00  0.00    +0.401 HD
BRANCH  19  22
ATOM     22  C12 <0> A   1      -9.718   0.746   0.102  0.00  0.00    -0.131 A 
ATOM     23  C13 <0> A   1      -9.485   2.123   0.101  0.00  0.00    +0.056 A 
ATOM     24  C14 <0> A   1     -10.546   3.002   0.116  0.00  0.00    +0.005 A 
ATOM     25  C15 <0> A   1     -11.849   2.522   0.132  0.00  0.00    +0.110 A 
ATOM     26  C16 <0> A   1     -12.088   1.148   0.134  0.00  0.00    +0.075 A 
ATOM     27  C17 <0> A   1     -11.029   0.262   0.113  0.00  0.00    +0.080 A 
BRANCH  26  28
ATOM     28  O3  <0> A   1     -13.366   0.681   0.150  0.00  0.00    -0.483 OA
ATOM     29  H15 <0> A   1     -13.747   0.547  -0.729  0.00  0.00    +0.391 HD
ENDBRANCH  26  28
BRANCH  25  30
ATOM     30  O4  <0> A   1     -12.892   3.392   0.147  0.00  0.00    -0.486 OA
ATOM     31  H16 <0> A   1     -13.205   3.645  -0.732  0.00  0.00    +0.394 HD
ENDBRANCH  25  30
ENDBRANCH  19  22
ENDBRANCH  17  18
ENDBRANCH   1  17
TORSDOF 10
ENDMDL
MODEL       38
REMARK  Name = CHEMBL1089505
REMARK  7 active torsions:
REMARK  status: ('A' for Active; 'I' for Inactive)
REMARK    1  A    between atoms: C1_1  and  C2_2
REMARK    2  A    between atoms: C2_2  and  C3_3
REMARK    3  A    between atoms: C3_3  and  O1_4
REMARK    4  A    between atoms: O1_4  and  C4_5
REMARK    5  A    between atoms: C4_5  and  C5_7
REMARK    6  A    between atoms: C9_11  and  O6_20
REMARK    7  A    between atoms: C11_13  and  N1_16
REMARK                            x       y       z     vdW  Elec       q    Type
REMARK                         _______ _______ _______ _____ _____    ______ ____
ROOT
ATOM      1  C5  <0> A   1       1.394  -3.987  -2.389  0.00  0.00    -0.264 C 
ATOM      2  C6  <0> A   1       1.955  -4.766  -3.356  0.00  0.00    +0.098 C 
ATOM      3  C7  <0> A   1       1.905  -6.167  -3.243  0.00  0.00    -0.215 A 
ATOM      4  C8  <0> A   1       2.426  -7.138  -4.139  0.00  0.00    +0.108 A 
ATOM      5  C9  <0> A   1       2.292  -8.467  -3.882  0.00  0.00    +0.018 A 
ATOM      6  C10 <0> A   1       1.639  -8.925  -2.732  0.00  0.00    +0.331 A 
ATOM      7  C11 <0> A   1       1.118  -8.008  -1.836  0.00  0.00    -0.165 A 
ATOM      8  C12 <0> A   1       1.250  -6.660  -2.089  0.00  0.00    +0.011 A 
ATOM      9  S1  <0> A   1       0.754  -5.186  -1.233  0.00  0.00    +0.113 S 
ATOM     10  O5  <0> A   1       1.518 -10.258  -2.498  0.00  0.00    -0.622 OA
ATOM     11 Cl1  <0> A   1       2.729  -4.032  -4.725  0.00  0.00    -0.035 Cl
ENDROOT
BRANCH   7  12
ATOM     12  N1  <0> A   1       0.424  -8.472  -0.614  0.00  0.00    +0.062 N 
ATOM     13  O3  <0> A   1       1.049  -8.653   0.405  0.00  0.00    -0.161 OA
ATOM     14  O4  <0> A   1      -0.769  -8.670  -0.635  0.00  0.00    -0.160 OA
ENDBRANCH   7  12
BRANCH   1  15
ATOM     15  C4  <0> A   1       1.337  -2.525  -2.314  0.00  0.00    +0.560 C 
ATOM     16  O2  <0> A   1       1.829  -1.851  -3.199  0.00  0.00    -0.491 OA
BRANCH  15  17
ATOM     17  O1  <0> A   1       0.738  -1.926  -1.265  0.00  0.00    -0.346 OA
BRANCH  17  18
ATOM     18  C3  <0> A   1       0.718  -0.497  -1.257  0.00  0.00    +0.203 C 
BRANCH  18  20
ATOM     19  C1  <0> A   1      -0.019   1.526   0.010  0.00  0.00    +0.030 C 
ATOM     20  C2  <0> A   1       0.002  -0.004   0.002  0.00  0.00    +0.025 C 
ENDBRANCH  18  20
ENDBRANCH  17  18
ENDBRANCH  15  17
ENDBRANCH   1  15
BRANCH   5  21
ATOM     21  O6  <0> A   1       2.803  -9.370  -4.762  0.00  0.00    -0.478 OA
ATOM     22  H9  <0> A   1       3.718  -9.623  -4.578  0.00  0.00    +0.378 HD
ENDBRANCH   5  21
TORSDOF 6
ENDMDL
MODEL       39
REMARK  Name = CHEMBL1089505
REMARK  8 active torsions:
REMARK  status: ('A' for Active; 'I' for Inactive)
REMARK    1  A    between atoms: C1_1  and  C2_2
REMARK    2  A    between atoms: C2_2  and  C3_3
REMARK    3  A    between atoms: C3_3  and  O1_4
REMARK    4  A    between atoms: O1_4  and  C4_5
REMARK    5  A    between atoms: C4_5  and  C5_7
REMARK    6  A    between atoms: C9_11  and  O6_20
REMARK    7  A    between atoms: C10_12  and  O5_19
REMARK    8  A    between atoms: C11_13  and  N1_16
REMARK                            x       y       z     vdW  Elec       q    Type
REMARK                         _______ _______ _______ _____ _____    ______ ____
ROOT
ATOM      1  C5  <0> A   1       1.439  -4.012   2.323  0.00  0.00    -0.173 C 
ATOM      2  C6  <0> A   1       2.009  -4.802   3.277  0.00  0.00    +0.026 C 
ATOM      3  C7  <0> A   1       1.958  -6.202   3.148  0.00  0.00    -0.083 A 
ATOM      4  C8  <0> A   1       2.488  -7.182   4.029  0.00  0.00    +0.135 A 
ATOM      5  C9  <0> A   1       2.353  -8.508   3.757  0.00  0.00    +0.096 A 
ATOM      6  C10 <0> A   1       1.691  -8.954   2.608  0.00  0.00    +0.191 A 
ATOM      7  C11 <0> A   1       1.161  -8.027   1.727  0.00  0.00    -0.013 A 
ATOM      8  C12 <0> A   1       1.294  -6.682   1.995  0.00  0.00    -0.091 A 
ATOM      9  S1  <0> A   1       0.776  -5.199   1.167  0.00  0.00    +0.214 S 
ATOM     10 Cl1  <0> A   1       2.796  -4.082   4.646  0.00  0.00    +0.004 Cl
ENDROOT
BRANCH   7  11
ATOM     11  N1  <0> A   1       0.457  -8.478   0.506  0.00  0.00    +0.023 N 
ATOM     12  O3  <0> A   1      -0.735  -8.678   0.534  0.00  0.00    -0.125 OA
ATOM     13  O4  <0> A   1       1.074  -8.646  -0.520  0.00  0.00    -0.110 OA
ENDBRANCH   7  11
BRANCH   1  14
ATOM     14  C4  <0> A   1       1.381  -2.550   2.265  0.00  0.00    +0.548 C 
ATOM     15  O2  <0> A   1       1.890  -1.885   3.147  0.00  0.00    -0.460 OA
BRANCH  14  16
ATOM     16  O1  <0> A   1       0.761  -1.940   1.234  0.00  0.00    -0.342 OA
BRANCH  16  17
ATOM     17  C3  <0> A   1       0.742  -0.511   1.242  0.00  0.00    +0.216 C 
BRANCH  17  19
ATOM     18  C1  <0> A   1      -0.019   1.526   0.010  0.00  0.00    +0.036 C 
ATOM     19  C2  <0> A   1       0.002  -0.004   0.002  0.00  0.00    +0.029 C 
ENDBRANCH  17  19
ENDBRANCH  16  17
ENDBRANCH  14  16
ENDBRANCH   1  14
BRANCH   6  20
ATOM     20  O5  <0> A   1       1.570 -10.284   2.359  0.00  0.00    -0.467 OA
ATOM     21  H9  <0> A   1       0.772 -10.683   2.732  0.00  0.00    +0.412 HD
ENDBRANCH   6  20
BRANCH   5  22
ATOM     22  O6  <0> A   1       2.874  -9.420   4.622  0.00  0.00    -0.469 OA
ATOM     23  H10 <0> A   1       2.262  -9.698   5.317  0.00  0.00    +0.401 HD
ENDBRANCH   5  22
TORSDOF 7
ENDMDL
MODEL       40
REMARK  Name = CHEMBL1091981
REMARK  11 active torsions:
REMARK  status: ('A' for Active; 'I' for Inactive)
REMARK    1  A    between atoms: C1_1  and  C2_2
REMARK    2  A    between atoms: C2_2  and  C3_3
REMARK    3  A    between atoms: C3_3  and  C4_4
REMARK    4  A    between atoms: C4_4  and  O2_6
REMARK    5  A    between atoms: O2_6  and  C5_7
REMARK    6  A    between atoms: C5_7  and  C6_8
REMARK    7  A    between atoms: C5_7  and  O3_9
REMARK    8  A    between atoms: O3_9  and  C7_10
REMARK    9  A    between atoms: C7_10  and  C8_12
REMARK   10  A    between atoms: C12_16  and  O8_25
REMARK   11  A    between atoms: C14_18  and  N1_21
REMARK                            x       y       z     vdW  Elec       q    Type
REMARK                         _______ _______ _______ _____ _____    ______ ____
ROOT
ATOM      1  C8  <0> A   1      -0.429  -4.186   2.994  0.00  0.00    -0.267 C 
ATOM      2  C9  <0> A   1       0.721  -3.740   3.573  0.00  0.00    +0.099 C 
ATOM      3  C10 <0> A   1       1.006  -4.071   4.910  0.00  0.00    -0.216 A 
ATOM      4  C11 <0> A   1       2.141  -3.704   5.681  0.00  0.00    +0.109 A 
ATOM      5  C12 <0> A   1       2.266  -4.110   6.973  0.00  0.00    +0.018 A 
ATOM      6  C13 <0> A   1       1.288  -4.899   7.588  0.00  0.00    +0.331 A 
ATOM      7  C14 <0> A   1       0.168  -5.276   6.868  0.00  0.00    -0.165 A 
ATOM      8  C15 <0> A   1       0.033  -4.869   5.558  0.00  0.00    +0.011 A 
ATOM      9  S1  <0> A   1      -1.205  -5.109   4.309  0.00  0.00    +0.116 S 
ATOM     10  O7  <0> A   1       1.437  -5.292   8.881  0.00  0.00    -0.621 OA
ATOM     11 Cl1  <0> A   1       1.833  -2.766   2.663  0.00  0.00    -0.034 Cl
ENDROOT
BRANCH   7  12
ATOM     12  N1  <0> A   1      -0.878  -6.111   7.500  0.00  0.00    +0.062 N 
ATOM     13  O5  <0> A   1      -1.802  -5.587   8.078  0.00  0.00    -0.161 OA
ATOM     14  O6  <0> A   1      -0.809  -7.316   7.438  0.00  0.00    -0.160 OA
ENDBRANCH   7  12
BRANCH   1  15
ATOM     15  C7  <0> A   1      -0.911  -3.959   1.629  0.00  0.00    +0.560 C 
ATOM     16  O4  <0> A   1      -0.249  -3.298   0.852  0.00  0.00    -0.473 OA
BRANCH  15  17
ATOM     17  O3  <0> A   1      -2.090  -4.483   1.235  0.00  0.00    -0.346 OA
BRANCH  17  18
ATOM     18  C5  <0> A   1      -2.557  -4.122  -0.067  0.00  0.00    +0.393 C 
ATOM     19  C6  <0> A   1      -2.664  -2.599  -0.166  0.00  0.00    +0.082 C 
BRANCH  18  20
ATOM     20  O2  <0> A   1      -1.639  -4.601  -1.052  0.00  0.00    -0.352 OA
BRANCH  20  21
ATOM     21  C4  <0> A   1      -1.605  -5.926  -1.260  0.00  0.00    +0.456 C 
ATOM     22  O1  <0> A   1      -2.261  -6.664  -0.564  0.00  0.00    -0.491 OA
BRANCH  21  23
ATOM     23  C3  <0> A   1      -0.747  -6.494  -2.361  0.00  0.00    +0.099 C 
BRANCH  23  25
ATOM     24  C1  <0> A   1      -0.017  -8.594  -3.502  0.00  0.00    +0.022 C 
ATOM     25  C2  <0> A   1      -0.888  -8.017  -2.384  0.00  0.00    +0.029 C 
ENDBRANCH  23  25
ENDBRANCH  21  23
ENDBRANCH  20  21
ENDBRANCH  18  20
ENDBRANCH  17  18
ENDBRANCH  15  17
ENDBRANCH   1  15
BRANCH   5  26
ATOM     26  O8  <0> A   1       3.367  -3.741   7.683  0.00  0.00    -0.478 OA
ATOM     27  H13 <0> A   1       3.267  -2.905   8.157  0.00  0.00    +0.378 HD
ENDBRANCH   5  26
TORSDOF 9
ENDMDL
MODEL       41
REMARK  Name = CHEMBL1091981
REMARK  12 active torsions:
REMARK  status: ('A' for Active; 'I' for Inactive)
REMARK    1  A    between atoms: C1_1  and  C2_2
REMARK    2  A    between atoms: C2_2  and  C3_3
REMARK    3  A    between atoms: C3_3  and  C4_4
REMARK    4  A    between atoms: C4_4  and  O2_6
REMARK    5  A    between atoms: O2_6  and  C5_7
REMARK    6  A    between atoms: C5_7  and  C6_8
REMARK    7  A    between atoms: C5_7  and  O3_9
REMARK    8  A    between atoms: O3_9  and  C7_10
REMARK    9  A    between atoms: C7_10  and  C8_12
REMARK   10  A    between atoms: C12_16  and  O8_25
REMARK   11  A    between atoms: C13_17  and  O7_24
REMARK   12  A    between atoms: C14_18  and  N1_21
REMARK                            x       y       z     vdW  Elec       q    Type
REMARK                         _______ _______ _______ _____ _____    ______ ____
ROOT
ATOM      1  C8  <0> A   1      -0.429  -4.186   2.994  0.00  0.00    -0.178 C 
ATOM      2  C9  <0> A   1       0.721  -3.740   3.573  0.00  0.00    +0.028 C 
ATOM      3  C10 <0> A   1       1.006  -4.071   4.910  0.00  0.00    -0.084 A 
ATOM      4  C11 <0> A   1       2.141  -3.704   5.681  0.00  0.00    +0.135 A 
ATOM      5  C12 <0> A   1       2.266  -4.110   6.973  0.00  0.00    +0.095 A 
ATOM      6  C13 <0> A   1       1.288  -4.899   7.588  0.00  0.00    +0.192 A 
ATOM      7  C14 <0> A   1       0.168  -5.276   6.868  0.00  0.00    -0.013 A 
ATOM      8  C15 <0> A   1       0.033  -4.869   5.558  0.00  0.00    -0.091 A 
ATOM      9  S1  <0> A   1      -1.205  -5.109   4.309  0.00  0.00    +0.217 S 
ATOM     10 Cl1  <0> A   1       1.833  -2.766   2.663  0.00  0.00    +0.005 Cl
ENDROOT
BRANCH   7  11
ATOM     11  N1  <0> A   1      -0.878  -6.111   7.500  0.00  0.00    +0.022 N 
ATOM     12  O5  <0> A   1      -1.802  -5.587   8.078  0.00  0.00    -0.124 OA
ATOM     13  O6  <0> A   1      -0.809  -7.316   7.438  0.00  0.00    -0.109 OA
ENDBRANCH   7  11
BRANCH   1  14
ATOM     14  C7  <0> A   1      -0.911  -3.959   1.629  0.00  0.00    +0.549 C 
ATOM     15  O4  <0> A   1      -0.249  -3.298   0.852  0.00  0.00    -0.442 OA
BRANCH  14  16
ATOM     16  O3  <0> A   1      -2.090  -4.483   1.235  0.00  0.00    -0.343 OA
BRANCH  16  17
ATOM     17  C5  <0> A   1      -2.557  -4.122  -0.067  0.00  0.00    +0.401 C 
ATOM     18  C6  <0> A   1      -2.664  -2.599  -0.166  0.00  0.00    +0.088 C 
BRANCH  17  19
ATOM     19  O2  <0> A   1      -1.639  -4.601  -1.052  0.00  0.00    -0.351 OA
BRANCH  19  20
ATOM     20  C4  <0> A   1      -1.605  -5.926  -1.260  0.00  0.00    +0.458 C 
ATOM     21  O1  <0> A   1      -2.261  -6.664  -0.564  0.00  0.00    -0.490 OA
BRANCH  20  22
ATOM     22  C3  <0> A   1      -0.747  -6.494  -2.361  0.00  0.00    +0.103 C 
BRANCH  22  24
ATOM     23  C1  <0> A   1      -0.017  -8.594  -3.502  0.00  0.00    +0.024 C 
ATOM     24  C2  <0> A   1      -0.888  -8.017  -2.384  0.00  0.00    +0.030 C 
ENDBRANCH  22  24
ENDBRANCH  20  22
ENDBRANCH  19  20
ENDBRANCH  17  19
ENDBRANCH  16  17
ENDBRANCH  14  16
ENDBRANCH   1  14
BRANCH   6  25
ATOM     25  O7  <0> A   1       1.437  -5.292   8.881  0.00  0.00    -0.467 OA
ATOM     26  H13 <0> A   1       1.062  -4.676   9.525  0.00  0.00    +0.412 HD
ENDBRANCH   6  25
BRANCH   5  27
ATOM     27  O8  <0> A   1       3.367  -3.741   7.683  0.00  0.00    -0.468 OA
ATOM     28  H14 <0> A   1       3.267  -2.905   8.157  0.00  0.00    +0.401 HD
ENDBRANCH   5  27
TORSDOF 10
ENDMDL
MODEL       42
REMARK  Name = CHEMBL1091981
REMARK  11 active torsions:
REMARK  status: ('A' for Active; 'I' for Inactive)
REMARK    1  A    between atoms: C1_1  and  C2_2
REMARK    2  A    between atoms: C2_2  and  C3_3
REMARK    3  A    between atoms: C3_3  and  C4_4
REMARK    4  A    between atoms: C4_4  and  O2_6
REMARK    5  A    between atoms: O2_6  and  C5_7
REMARK    6  A    between atoms: C5_7  and  C6_8
REMARK    7  A    between atoms: C5_7  and  O3_9
REMARK    8  A    between atoms: O3_9  and  C7_10
REMARK    9  A    between atoms: C7_10  and  C8_12
REMARK   10  A    between atoms: C12_16  and  O8_25
REMARK   11  A    between atoms: C14_18  and  N1_21
REMARK                            x       y       z     vdW  Elec       q    Type
REMARK                         _______ _______ _______ _____ _____    ______ ____
ROOT
ATOM      1  C8  <0> A   1       0.125  -5.198  -2.296  0.00  0.00    -0.267 C 
ATOM      2  C9  <0> A   1       1.465  -5.213  -2.543  0.00  0.00    +0.099 C 
ATOM      3  C10 <0> A   1       1.958  -5.864  -3.688  0.00  0.00    -0.216 A 
ATOM      4  C11 <0> A   1       3.308  -5.986  -4.113  0.00  0.00    +0.109 A 
ATOM      5  C12 <0> A   1       3.621  -6.654  -5.256  0.00  0.00    +0.018 A 
ATOM      6  C13 <0> A   1       2.632  -7.241  -6.052  0.00  0.00    +0.331 A 
ATOM      7  C14 <0> A   1       1.306  -7.143  -5.670  0.00  0.00    -0.165 A 
ATOM      8  C15 <0> A   1       0.980  -6.468  -4.513  0.00  0.00    +0.011 A 
ATOM      9  S1  <0> A   1      -0.544  -6.117  -3.672  0.00  0.00    +0.119 S 
ATOM     10  O7  <0> A   1       2.971  -7.902  -7.190  0.00  0.00    -0.621 OA
ATOM     11 Cl1  <0> A   1       2.560  -4.431  -1.447  0.00  0.00    -0.034 Cl
ENDROOT
BRANCH   7  12
ATOM     12  N1  <0> A   1       0.244  -7.757  -6.498  0.00  0.00    +0.062 N 
ATOM     13  O5  <0> A   1      -0.099  -8.898  -6.292  0.00  0.00    -0.161 OA
ATOM     14  O6  <0> A   1      -0.280  -7.118  -7.380  0.00  0.00    -0.160 OA
ENDBRANCH   7  12
BRANCH   1  15
ATOM     15  C7  <0> A   1      -0.590  -4.584  -1.175  0.00  0.00    +0.559 C 
ATOM     16  O4  <0> A   1       0.027  -3.988  -0.314  0.00  0.00    -0.479 OA
BRANCH  15  17
ATOM     17  O3  <0> A   1      -1.933  -4.681  -1.097  0.00  0.00    -0.344 OA
BRANCH  17  18
ATOM     18  C5  <0> A   1      -2.555  -4.157   0.078  0.00  0.00    +0.392 C 
ATOM     19  C6  <0> A   1      -4.018  -4.601   0.123  0.00  0.00    +0.082 C 
BRANCH  18  20
ATOM     20  O2  <0> A   1      -2.491  -2.729   0.055  0.00  0.00    -0.355 OA
BRANCH  20  21
ATOM     21  C4  <0> A   1      -3.140  -2.106  -0.941  0.00  0.00    +0.456 C 
ATOM     22  O1  <0> A   1      -3.658  -2.752  -1.821  0.00  0.00    -0.483 OA
BRANCH  21  23
ATOM     23  C3  <0> A   1      -3.223  -0.602  -0.962  0.00  0.00    +0.095 C 
BRANCH  23  25
ATOM     24  C1  <0> A   1      -4.095   1.377  -2.215  0.00  0.00    +0.021 C 
ATOM     25  C2  <0> A   1      -4.011  -0.151  -2.194  0.00  0.00    +0.030 C 
ENDBRANCH  23  25
ENDBRANCH  21  23
ENDBRANCH  20  21
ENDBRANCH  18  20
ENDBRANCH  17  18
ENDBRANCH  15  17
ENDBRANCH   1  15
BRANCH   5  26
ATOM     26  O8  <0> A   1       4.925  -6.751  -5.633  0.00  0.00    -0.478 OA
ATOM     27  H13 <0> A   1       5.378  -7.530  -5.283  0.00  0.00    +0.378 HD
ENDBRANCH   5  26
TORSDOF 9
ENDMDL
MODEL       43
REMARK  Name = CHEMBL1091981
REMARK  12 active torsions:
REMARK  status: ('A' for Active; 'I' for Inactive)
REMARK    1  A    between atoms: C1_1  and  C2_2
REMARK    2  A    between atoms: C2_2  and  C3_3
REMARK    3  A    between atoms: C3_3  and  C4_4
REMARK    4  A    between atoms: C4_4  and  O2_6
REMARK    5  A    between atoms: O2_6  and  C5_7
REMARK    6  A    between atoms: C5_7  and  C6_8
REMARK    7  A    between atoms: C5_7  and  O3_9
REMARK    8  A    between atoms: O3_9  and  C7_10
REMARK    9  A    between atoms: C7_10  and  C8_12
REMARK   10  A    between atoms: C12_16  and  O8_25
REMARK   11  A    between atoms: C13_17  and  O7_24
REMARK   12  A    between atoms: C14_18  and  N1_21
REMARK                            x       y       z     vdW  Elec       q    Type
REMARK                         _______ _______ _______ _____ _____    ______ ____
ROOT
ATOM      1  C8  <0> A   1       0.125  -5.198  -2.296  0.00  0.00    -0.177 C 
ATOM      2  C9  <0> A   1       1.465  -5.213  -2.543  0.00  0.00    +0.028 C 
ATOM      3  C10 <0> A   1       1.958  -5.864  -3.688  0.00  0.00    -0.084 A 
ATOM      4  C11 <0> A   1       3.308  -5.986  -4.113  0.00  0.00    +0.135 A 
ATOM      5  C12 <0> A   1       3.621  -6.654  -5.256  0.00  0.00    +0.095 A 
ATOM      6  C13 <0> A   1       2.632  -7.241  -6.052  0.00  0.00    +0.192 A 
ATOM      7  C14 <0> A   1       1.306  -7.143  -5.670  0.00  0.00    -0.013 A 
ATOM      8  C15 <0> A   1       0.980  -6.468  -4.513  0.00  0.00    -0.091 A 
ATOM      9  S1  <0> A   1      -0.544  -6.117  -3.672  0.00  0.00    +0.221 S 
ATOM     10 Cl1  <0> A   1       2.560  -4.431  -1.447  0.00  0.00    +0.005 Cl
ENDROOT
BRANCH   7  11
ATOM     11  N1  <0> A   1       0.244  -7.757  -6.498  0.00  0.00    +0.023 N 
ATOM     12  O5  <0> A   1      -0.099  -8.898  -6.292  0.00  0.00    -0.125 OA
ATOM     13  O6  <0> A   1      -0.280  -7.118  -7.380  0.00  0.00    -0.109 OA
ENDBRANCH   7  11
BRANCH   1  14
ATOM     14  C7  <0> A   1      -0.590  -4.584  -1.175  0.00  0.00    +0.548 C 
ATOM     15  O4  <0> A   1       0.027  -3.988  -0.314  0.00  0.00    -0.448 OA
BRANCH  14  16
ATOM     16  O3  <0> A   1      -1.933  -4.681  -1.097  0.00  0.00    -0.342 OA
BRANCH  16  17
ATOM     17  C5  <0> A   1      -2.555  -4.157   0.078  0.00  0.00    +0.398 C 
ATOM     18  C6  <0> A   1      -4.018  -4.601   0.123  0.00  0.00    +0.091 C 
BRANCH  17  19
ATOM     19  O2  <0> A   1      -2.491  -2.729   0.055  0.00  0.00    -0.353 OA
BRANCH  19  20
ATOM     20  C4  <0> A   1      -3.140  -2.106  -0.941  0.00  0.00    +0.458 C 
ATOM     21  O1  <0> A   1      -3.658  -2.752  -1.821  0.00  0.00    -0.485 OA
BRANCH  20  22
ATOM     22  C3  <0> A   1      -3.223  -0.602  -0.962  0.00  0.00    +0.099 C 
BRANCH  22  24
ATOM     23  C1  <0> A   1      -4.095   1.377  -2.215  0.00  0.00    +0.024 C 
ATOM     24  C2  <0> A   1      -4.011  -0.151  -2.194  0.00  0.00    +0.030 C 
ENDBRANCH  22  24
ENDBRANCH  20  22
ENDBRANCH  19  20
ENDBRANCH  17  19
ENDBRANCH  16  17
ENDBRANCH  14  16
ENDBRANCH   1  14
BRANCH   6  25
ATOM     25  O7  <0> A   1       2.971  -7.902  -7.190  0.00  0.00    -0.467 OA
ATOM     26  H13 <0> A   1       3.146  -8.845  -7.060  0.00  0.00    +0.412 HD
ENDBRANCH   6  25
BRANCH   5  27
ATOM     27  O8  <0> A   1       4.925  -6.751  -5.633  0.00  0.00    -0.468 OA
ATOM     28  H14 <0> A   1       5.378  -7.530  -5.283  0.00  0.00    +0.401 HD
ENDBRANCH   5  27
TORSDOF 10
ENDMDL
MODEL       44
REMARK  Name = CHEMBL170549
REMARK  4 active torsions:
REMARK  status: ('A' for Active; 'I' for Inactive)
REMARK    1  A    between atoms: C2_2  and  C7_12
REMARK    2  A    between atoms: C4_4  and  O4_11
REMARK    3  A    between atoms: C5_5  and  O3_10
REMARK    4  A    between atoms: C6_6  and  N1_7
REMARK                            x       y       z     vdW  Elec       q    Type
REMARK                         _______ _______ _______ _____ _____    ______ ____
ROOT
ATOM      1  C1  <0> A   1      -0.017   1.373   0.010  0.00  0.00    +0.150 A 
ATOM      2  C2  <0> A   1       1.185   2.088   0.002  0.00  0.00    -0.122 A 
ATOM      3  C3  <0> A   1       2.404   1.402  -0.013  0.00  0.00    +0.113 A 
ATOM      4  C4  <0> A   1       2.414   0.021  -0.021  0.00  0.00    +0.064 A 
ATOM      5  C5  <0> A   1       1.212  -0.686  -0.013  0.00  0.00    +0.137 A 
ATOM      6  C6  <0> A   1       0.002  -0.004   0.002  0.00  0.00    -0.081 A 
ENDROOT
BRANCH   6   7
ATOM      7  N1  <0> A   1      -1.271  -0.760   0.010  0.00  0.00    +0.044 N 
ATOM      8  O1  <0> A   1      -2.325  -0.168   0.023  0.00  0.00    -0.171 OA
ATOM      9  O2  <0> A   1      -1.256  -1.969   0.004  0.00  0.00    -0.154 OA
ENDBRANCH   6   7
BRANCH   2  10
ATOM     10  C7  <0> A   1       1.168   3.561   0.009  0.00  0.00    +0.524 C 
ATOM     11  O5  <0> A   1       0.101   4.160   0.022  0.00  0.00    -0.669 OA
ATOM     12  O6  <0> A   1       2.220   4.185   0.003  0.00  0.00    -0.672 OA
ENDBRANCH   2  10
BRANCH   5  13
ATOM     13  O3  <0> A   1       1.225  -2.043  -0.021  0.00  0.00    -0.465 OA
ATOM     14  H3  <0> A   1       1.237  -2.441   0.860  0.00  0.00    +0.393 HD
ENDBRANCH   5  13
BRANCH   4  15
ATOM     15  O4  <0> A   1       3.597  -0.650  -0.036  0.00  0.00    -0.477 OA
ATOM     16  H4  <0> A   1       3.948  -0.849   0.843  0.00  0.00    +0.387 HD
ENDBRANCH   4  15
TORSDOF 4
ENDMDL
MODEL       45
REMARK  Name = CHEMBL170549
REMARK  3 active torsions:
REMARK  status: ('A' for Active; 'I' for Inactive)
REMARK    1  A    between atoms: C2_2  and  C7_12
REMARK    2  A    between atoms: C4_4  and  O4_11
REMARK    3  A    between atoms: C6_6  and  N1_7
REMARK                            x       y       z     vdW  Elec       q    Type
REMARK                         _______ _______ _______ _____ _____    ______ ____
ROOT
ATOM      1  C1  <0> A   1      -0.017   1.373   0.010  0.00  0.00    +0.152 A 
ATOM      2  C2  <0> A   1       1.185   2.088   0.002  0.00  0.00    -0.252 A 
ATOM      3  C3  <0> A   1       2.404   1.402  -0.013  0.00  0.00    +0.106 A 
ATOM      4  C4  <0> A   1       2.414   0.021  -0.021  0.00  0.00    -0.065 A 
ATOM      5  C5  <0> A   1       1.212  -0.686  -0.013  0.00  0.00    +0.299 A 
ATOM      6  C6  <0> A   1       0.002  -0.004   0.002  0.00  0.00    -0.212 A 
ATOM      7  O3  <0> A   1       1.225  -2.043  -0.021  0.00  0.00    -0.656 OA
ENDROOT
BRANCH   6   8
ATOM      8  N1  <0> A   1      -1.271  -0.760   0.010  0.00  0.00    +0.081 N 
ATOM      9  O1  <0> A   1      -2.325  -0.168   0.023  0.00  0.00    -0.270 OA
ATOM     10  O2  <0> A   1      -1.256  -1.969   0.004  0.00  0.00    -0.183 OA
ENDBRANCH   6   8
BRANCH   2  11
ATOM     11  C7  <0> A   1       1.168   3.561   0.009  0.00  0.00    +0.539 C 
ATOM     12  O5  <0> A   1       0.101   4.160   0.022  0.00  0.00    -0.704 OA
ATOM     13  O6  <0> A   1       2.220   4.185   0.003  0.00  0.00    -0.708 OA
ENDBRANCH   2  11
BRANCH   4  14
ATOM     14  O4  <0> A   1       3.597  -0.650  -0.036  0.00  0.00    -0.483 OA
ATOM     15  H3  <0> A   1       3.948  -0.849   0.843  0.00  0.00    +0.354 HD
ENDBRANCH   4  14
TORSDOF 3
ENDMDL
MODEL       46
REMARK  Name = CHEMBL8476
REMARK  8 active torsions:
REMARK  status: ('A' for Active; 'I' for Inactive)
REMARK    1  A    between atoms: C4_4  and  C7_7
REMARK    2  A    between atoms: C7_7  and  C8_8
REMARK    3  A    between atoms: C8_8  and  C9_9
REMARK    4  A    between atoms: C9_9  and  C10_10
REMARK    5  A    between atoms: C10_10  and  C11_12
REMARK    6  A    between atoms: C14_15  and  O5_22
REMARK    7  A    between atoms: C15_16  and  O4_21
REMARK    8  A    between atoms: C16_17  and  N1_18
REMARK                            x       y       z     vdW  Elec       q    Type
REMARK                         _______ _______ _______ _____ _____    ______ ____
ROOT
ATOM      1  C11 <0> A   1       7.223  -2.669   3.048  0.00  0.00    -0.123 A 
ATOM      2  C12 <0> A   1       8.010  -3.103   1.975  0.00  0.00    +0.113 A 
ATOM      3  C13 <0> A   1       9.194  -3.765   2.213  0.00  0.00    +0.055 A 
ATOM      4  C14 <0> A   1       9.610  -4.003   3.517  0.00  0.00    +0.131 A 
ATOM      5  C15 <0> A   1       8.831  -3.573   4.592  0.00  0.00    +0.119 A 
ATOM      6  C16 <0> A   1       7.646  -2.904   4.362  0.00  0.00    +0.003 A 
ENDROOT
BRANCH   6   7
ATOM      7  N1  <0> A   1       6.821  -2.442   5.501  0.00  0.00    +0.037 N 
ATOM      8  O2  <0> A   1       5.974  -3.167   5.967  0.00  0.00    -0.117 OA
ATOM      9  O3  <0> A   1       6.996  -1.340   5.965  0.00  0.00    -0.133 OA
ENDBRANCH   6   7
BRANCH   1  10
ATOM     10  C10 <0> A   1       5.960  -1.962   2.796  0.00  0.00    +0.383 C 
ATOM     11  O1  <0> A   1       5.282  -1.582   3.727  0.00  0.00    -0.425 OA
BRANCH  10  12
ATOM     12  C9  <0> A   1       5.507  -1.710   1.381  0.00  0.00    +0.056 C 
BRANCH  12  13
ATOM     13  C8  <0> A   1       4.171  -0.963   1.399  0.00  0.00    +0.040 C 
BRANCH  13  14
ATOM     14  C7  <0> A   1       3.711  -0.707  -0.038  0.00  0.00    +0.070 C 
BRANCH  14  18
ATOM     15  C1  <0> A   1      -0.017   1.378   0.010  0.00  0.00    -0.002 A 
ATOM     16  C2  <0> A   1       1.171   2.086   0.002  0.00  0.00    +0.004 A 
ATOM     17  C3  <0> A   1       2.377   1.411  -0.013  0.00  0.00    +0.004 A 
ATOM     18  C4  <0> A   1       2.396   0.029  -0.020  0.00  0.00    -0.085 A 
ATOM     19  C5  <0> A   1       1.208  -0.679  -0.012  0.00  0.00    +0.004 A 
ATOM     20  C6  <0> A   1       0.002  -0.004   0.002  0.00  0.00    +0.004 A 
ENDBRANCH  14  18
ENDBRANCH  13  14
ENDBRANCH  12  13
ENDBRANCH  10  12
ENDBRANCH   1  10
BRANCH   5  21
ATOM     21  O4  <0> A   1       9.242  -3.809   5.866  0.00  0.00    -0.473 OA
ATOM     22  H14 <0> A   1       9.792  -3.105   6.239  0.00  0.00    +0.404 HD
ENDBRANCH   5  21
BRANCH   4  23
ATOM     23  O5  <0> A   1      10.778  -4.655   3.746  0.00  0.00    -0.472 OA
ATOM     24  H15 <0> A   1      11.547  -4.073   3.816  0.00  0.00    +0.403 HD
ENDBRANCH   4  23
TORSDOF 8
ENDMDL
MODEL       47
REMARK  Name = CHEMBL8476
REMARK  7 active torsions:
REMARK  status: ('A' for Active; 'I' for Inactive)
REMARK    1  A    between atoms: C4_4  and  C7_7
REMARK    2  A    between atoms: C7_7  and  C8_8
REMARK    3  A    between atoms: C8_8  and  C9_9
REMARK    4  A    between atoms: C9_9  and  C10_10
REMARK    5  A    between atoms: C10_10  and  C11_12
REMARK    6  A    between atoms: C14_15  and  O5_22
REMARK    7  A    between atoms: C16_17  and  N1_18
REMARK                            x       y       z     vdW  Elec       q    Type
REMARK                         _______ _______ _______ _____ _____    ______ ____
ROOT
ATOM      1  C11 <0> A   1       7.223  -2.669   3.048  0.00  0.00    -0.089 A 
ATOM      2  C12 <0> A   1       8.010  -3.103   1.975  0.00  0.00    -0.047 A 
ATOM      3  C13 <0> A   1       9.194  -3.765   2.213  0.00  0.00    +0.033 A 
ATOM      4  C14 <0> A   1       9.610  -4.003   3.517  0.00  0.00    +0.011 A 
ATOM      5  C15 <0> A   1       8.831  -3.573   4.592  0.00  0.00    +0.273 A 
ATOM      6  C16 <0> A   1       7.646  -2.904   4.362  0.00  0.00    -0.138 A 
ATOM      7  O4  <0> A   1       9.242  -3.809   5.866  0.00  0.00    -0.674 OA
ENDROOT
BRANCH   6   8
ATOM      8  N1  <0> A   1       6.821  -2.442   5.501  0.00  0.00    +0.078 N 
ATOM      9  O2  <0> A   1       5.974  -3.167   5.967  0.00  0.00    -0.172 OA
ATOM     10  O3  <0> A   1       6.996  -1.340   5.965  0.00  0.00    -0.173 OA
ENDBRANCH   6   8
BRANCH   1  11
ATOM     11  C10 <0> A   1       5.960  -1.962   2.796  0.00  0.00    +0.384 C 
ATOM     12  O1  <0> A   1       5.282  -1.582   3.727  0.00  0.00    -0.446 OA
BRANCH  11  13
ATOM     13  C9  <0> A   1       5.507  -1.710   1.381  0.00  0.00    +0.044 C 
BRANCH  13  14
ATOM     14  C8  <0> A   1       4.171  -0.963   1.399  0.00  0.00    +0.035 C 
BRANCH  14  15
ATOM     15  C7  <0> A   1       3.711  -0.707  -0.038  0.00  0.00    +0.066 C 
BRANCH  15  19
ATOM     16  C1  <0> A   1      -0.017   1.378   0.010  0.00  0.00    -0.010 A 
ATOM     17  C2  <0> A   1       1.171   2.086   0.002  0.00  0.00    +0.001 A 
ATOM     18  C3  <0> A   1       2.377   1.411  -0.013  0.00  0.00    +0.004 A 
ATOM     19  C4  <0> A   1       2.396   0.029  -0.020  0.00  0.00    -0.077 A 
ATOM     20  C5  <0> A   1       1.208  -0.679  -0.012  0.00  0.00    +0.004 A 
ATOM     21  C6  <0> A   1       0.002  -0.004   0.002  0.00  0.00    +0.001 A 
ENDBRANCH  15  19
ENDBRANCH  14  15
ENDBRANCH  13  14
ENDBRANCH  11  13
ENDBRANCH   1  11
BRANCH   4  22
ATOM     22  O5  <0> A   1      10.778  -4.655   3.746  0.00  0.00    -0.481 OA
ATOM     23  H14 <0> A   1      11.547  -4.073   3.816  0.00  0.00    +0.372 HD
ENDBRANCH   4  22
TORSDOF 7
ENDMDL
MODEL       48
REMARK  Name = CHEMBL1089539
REMARK  10 active torsions:
REMARK  status: ('A' for Active; 'I' for Inactive)
REMARK    1  A    between atoms: C1_1  and  C2_2
REMARK    2  A    between atoms: C2_2  and  C3_3
REMARK    3  A    between atoms: C3_3  and  C4_4
REMARK    4  A    between atoms: C4_4  and  O2_6
REMARK    5  A    between atoms: O2_6  and  C5_7
REMARK    6  A    between atoms: C5_7  and  O3_8
REMARK    7  A    between atoms: O3_8  and  C6_9
REMARK    8  A    between atoms: C6_9  and  C7_11
REMARK    9  A    between atoms: C11_15  and  O8_24
REMARK   10  A    between atoms: C13_17  and  N1_20
REMARK                            x       y       z     vdW  Elec       q    Type
REMARK                         _______ _______ _______ _____ _____    ______ ____
ROOT
ATOM      1  C7  <0> A   1      -2.690  -5.047   3.618  0.00  0.00    -0.269 C 
ATOM      2  C8  <0> A   1      -3.495  -5.106   4.716  0.00  0.00    +0.101 C 
ATOM      3  C9  <0> A   1      -2.983  -5.580   5.936  0.00  0.00    -0.216 A 
ATOM      4  C10 <0> A   1      -3.660  -5.714   7.178  0.00  0.00    +0.109 A 
ATOM      5  C11 <0> A   1      -3.015  -6.193   8.275  0.00  0.00    +0.018 A 
ATOM      6  C12 <0> A   1      -1.669  -6.570   8.223  0.00  0.00    +0.331 A 
ATOM      7  C13 <0> A   1      -0.977  -6.453   7.030  0.00  0.00    -0.164 A 
ATOM      8  C14 <0> A   1      -1.623  -5.969   5.914  0.00  0.00    +0.012 A 
ATOM      9  S1  <0> A   1      -1.135  -5.671   4.233  0.00  0.00    +0.117 S 
ATOM     10  O7  <0> A   1      -1.046  -7.045   9.334  0.00  0.00    -0.621 OA
ATOM     11 Cl1  <0> A   1      -5.151  -4.596   4.607  0.00  0.00    -0.034 Cl
ENDROOT
BRANCH   7  12
ATOM     12  N1  <0> A   1       0.449  -6.846   6.954  0.00  0.00    +0.061 N 
ATOM     13  O5  <0> A   1       0.748  -7.981   6.664  0.00  0.00    -0.161 OA
ATOM     14  O6  <0> A   1       1.313  -6.032   7.182  0.00  0.00    -0.160 OA
ENDBRANCH   7  12
BRANCH   1  15
ATOM     15  C6  <0> A   1      -3.020  -4.591   2.266  0.00  0.00    +0.560 C 
ATOM     16  O4  <0> A   1      -4.141  -4.193   2.016  0.00  0.00    -0.478 OA
BRANCH  15  17
ATOM     17  O3  <0> A   1      -2.080  -4.612   1.299  0.00  0.00    -0.349 OA
BRANCH  17  18
ATOM     18  C5  <0> A   1      -2.472  -4.153   0.003  0.00  0.00    +0.481 C 
BRANCH  18  19
ATOM     19  O2  <0> A   1      -2.566  -2.727   0.012  0.00  0.00    -0.357 OA
BRANCH  19  20
ATOM     20  C4  <0> A   1      -1.413  -2.041   0.005  0.00  0.00    +0.458 C 
ATOM     21  O1  <0> A   1      -0.358  -2.630  -0.009  0.00  0.00    -0.490 OA
BRANCH  20  22
ATOM     22  C3  <0> A   1      -1.433  -0.534   0.013  0.00  0.00    +0.099 C 
BRANCH  22  24
ATOM     23  C1  <0> A   1      -0.019   1.526   0.010  0.00  0.00    +0.022 C 
ATOM     24  C2  <0> A   1       0.002  -0.004   0.002  0.00  0.00    +0.030 C 
ENDBRANCH  22  24
ENDBRANCH  20  22
ENDBRANCH  19  20
ENDBRANCH  18  19
ENDBRANCH  17  18
ENDBRANCH  15  17
ENDBRANCH   1  15
BRANCH   5  25
ATOM     25  O8  <0> A   1      -3.693  -6.308   9.449  0.00  0.00    -0.478 OA
ATOM     26  H11 <0> A   1      -4.128  -7.163   9.569  0.00  0.00    +0.378 HD
ENDBRANCH   5  25
TORSDOF 9
ENDMDL
MODEL       49
REMARK  Name = CHEMBL1089539
REMARK  11 active torsions:
REMARK  status: ('A' for Active; 'I' for Inactive)
REMARK    1  A    between atoms: C1_1  and  C2_2
REMARK    2  A    between atoms: C2_2  and  C3_3
REMARK    3  A    between atoms: C3_3  and  C4_4
REMARK    4  A    between atoms: C4_4  and  O2_6
REMARK    5  A    between atoms: O2_6  and  C5_7
REMARK    6  A    between atoms: C5_7  and  O3_8
REMARK    7  A    between atoms: O3_8  and  C6_9
REMARK    8  A    between atoms: C6_9  and  C7_11
REMARK    9  A    between atoms: C11_15  and  O8_24
REMARK   10  A    between atoms: C12_16  and  O7_23
REMARK   11  A    between atoms: C13_17  and  N1_20
REMARK                            x       y       z     vdW  Elec       q    Type
REMARK                         _______ _______ _______ _____ _____    ______ ____
ROOT
ATOM      1  C7  <0> A   1      -2.690  -5.047   3.618  0.00  0.00    -0.179 C 
ATOM      2  C8  <0> A   1      -3.495  -5.106   4.716  0.00  0.00    +0.030 C 
ATOM      3  C9  <0> A   1      -2.983  -5.580   5.936  0.00  0.00    -0.085 A 
ATOM      4  C10 <0> A   1      -3.660  -5.714   7.178  0.00  0.00    +0.136 A 
ATOM      5  C11 <0> A   1      -3.015  -6.193   8.275  0.00  0.00    +0.095 A 
ATOM      6  C12 <0> A   1      -1.669  -6.570   8.223  0.00  0.00    +0.193 A 
ATOM      7  C13 <0> A   1      -0.977  -6.453   7.030  0.00  0.00    -0.013 A 
ATOM      8  C14 <0> A   1      -1.623  -5.969   5.914  0.00  0.00    -0.090 A 
ATOM      9  S1  <0> A   1      -1.135  -5.671   4.233  0.00  0.00    +0.219 S 
ATOM     10 Cl1  <0> A   1      -5.151  -4.596   4.607  0.00  0.00    +0.005 Cl
ENDROOT
BRANCH   7  11
ATOM     11  N1  <0> A   1       0.449  -6.846   6.954  0.00  0.00    +0.022 N 
ATOM     12  O5  <0> A   1       0.748  -7.981   6.664  0.00  0.00    -0.124 OA
ATOM     13  O6  <0> A   1       1.313  -6.032   7.182  0.00  0.00    -0.109 OA
ENDBRANCH   7  11
BRANCH   1  14
ATOM     14  C6  <0> A   1      -3.020  -4.591   2.266  0.00  0.00    +0.549 C 
ATOM     15  O4  <0> A   1      -4.141  -4.193   2.016  0.00  0.00    -0.447 OA
BRANCH  14  16
ATOM     16  O3  <0> A   1      -2.080  -4.612   1.299  0.00  0.00    -0.346 OA
BRANCH  16  17
ATOM     17  C5  <0> A   1      -2.472  -4.153   0.003  0.00  0.00    +0.494 C 
BRANCH  17  18
ATOM     18  O2  <0> A   1      -2.566  -2.727   0.012  0.00  0.00    -0.356 OA
BRANCH  18  19
ATOM     19  C4  <0> A   1      -1.413  -2.041   0.005  0.00  0.00    +0.458 C 
ATOM     20  O1  <0> A   1      -0.358  -2.630  -0.009  0.00  0.00    -0.489 OA
BRANCH  19  21
ATOM     21  C3  <0> A   1      -1.433  -0.534   0.013  0.00  0.00    +0.102 C 
BRANCH  21  23
ATOM     22  C1  <0> A   1      -0.019   1.526   0.010  0.00  0.00    +0.025 C 
ATOM     23  C2  <0> A   1       0.002  -0.004   0.002  0.00  0.00    +0.030 C 
ENDBRANCH  21  23
ENDBRANCH  19  21
ENDBRANCH  18  19
ENDBRANCH  17  18
ENDBRANCH  16  17
ENDBRANCH  14  16
ENDBRANCH   1  14
BRANCH   6  24
ATOM     24  O7  <0> A   1      -1.046  -7.045   9.334  0.00  0.00    -0.467 OA
ATOM     25  H11 <0> A   1      -1.105  -8.005   9.437  0.00  0.00    +0.412 HD
ENDBRANCH   6  24
BRANCH   5  26
ATOM     26  O8  <0> A   1      -3.693  -6.308   9.449  0.00  0.00    -0.468 OA
ATOM     27  H12 <0> A   1      -4.128  -7.163   9.569  0.00  0.00    +0.401 HD
ENDBRANCH   5  26
TORSDOF 10
ENDMDL
MODEL       50
REMARK  Name = CHEMBL1089503
REMARK  3 active torsions:
REMARK  status: ('A' for Active; 'I' for Inactive)
REMARK    1  A    between atoms: C4_4  and  N1_9
REMARK    2  A    between atoms: C6_6  and  O1_7
REMARK    3  A    between atoms: C7_13  and  C9_16
REMARK                            x       y       z     vdW  Elec       q    Type
REMARK                         _______ _______ _______ _____ _____    ______ ____
ROOT
ATOM      1  C1  <0> A   1      -0.016   1.355   0.009  0.00  0.00    +0.095 A 
ATOM      2  C2  <0> A   1       1.194   2.099   0.002  0.00  0.00    -0.186 A 
ATOM      3  C3  <0> A   1       2.395   1.351  -0.014  0.00  0.00    -0.025 A 
ATOM      4  C4  <0> A   1       2.405  -0.027  -0.021  0.00  0.00    -0.170 A 
ATOM      5  C5  <0> A   1       1.206  -0.718  -0.013  0.00  0.00    +0.317 A 
ATOM      6  C6  <0> A   1       0.002  -0.004   0.002  0.00  0.00    -0.006 A 
ATOM      7  O2  <0> A   1       1.197  -2.077  -0.020  0.00  0.00    -0.667 OA
ATOM      8  S1  <0> A   1       3.660   2.597  -0.020  0.00  0.00    +0.058 S 
ATOM      9  C7  <0> A   1       2.606   4.037  -0.002  0.00  0.00    -0.180 C 
ATOM     10  C8  <0> A   1       1.353   3.496   0.007  0.00  0.00    -0.007 C 
ATOM     11 Cl1  <0> A   1      -0.041   4.530   0.026  0.00  0.00    -0.060 Cl
ENDROOT
BRANCH   4  12
ATOM     12  N1  <0> A   1       3.689  -0.763  -0.037  0.00  0.00    +0.072 N 
ATOM     13  O3  <0> A   1       4.224  -1.069   1.003  0.00  0.00    -0.174 OA
ATOM     14  O4  <0> A   1       4.203  -1.058  -1.091  0.00  0.00    -0.175 OA
ENDBRANCH   4  12
BRANCH   9  15
ATOM     15  C9  <0> A   1       2.990   5.447   0.002  0.00  0.00    +0.562 C 
ATOM     16  O5  <0> A   1       4.174   5.760  -0.008  0.00  0.00    -0.683 OA
ATOM     17  O6  <0> A   1       2.127   6.316   0.015  0.00  0.00    -0.656 OA
ENDBRANCH   9  15
BRANCH   6  18
ATOM     18  O1  <0> A   1      -1.175  -0.685   0.010  0.00  0.00    -0.482 OA
ATOM     19  H2  <0> A   1      -1.525  -0.878  -0.871  0.00  0.00    +0.367 HD
ENDBRANCH   6  18
TORSDOF 3
ENDMDL
MODEL       51
REMARK  Name = CHEMBL1089503
REMARK  4 active torsions:
REMARK  status: ('A' for Active; 'I' for Inactive)
REMARK    1  A    between atoms: C4_4  and  N1_9
REMARK    2  A    between atoms: C5_5  and  O2_8
REMARK    3  A    between atoms: C6_6  and  O1_7
REMARK    4  A    between atoms: C7_13  and  C9_16
REMARK                            x       y       z     vdW  Elec       q    Type
REMARK                         _______ _______ _______ _____ _____    ______ ____
ROOT
ATOM      1  C1  <0> A   1      -0.016   1.355   0.009  0.00  0.00    +0.102 A 
ATOM      2  C2  <0> A   1       1.194   2.099   0.002  0.00  0.00    -0.044 A 
ATOM      3  C3  <0> A   1       2.395   1.351  -0.014  0.00  0.00    -0.130 A 
ATOM      4  C4  <0> A   1       2.405  -0.027  -0.021  0.00  0.00    +0.004 A 
ATOM      5  C5  <0> A   1       1.206  -0.718  -0.013  0.00  0.00    +0.149 A 
ATOM      6  C6  <0> A   1       0.002  -0.004   0.002  0.00  0.00    +0.089 A 
ATOM      7  S1  <0> A   1       3.660   2.597  -0.020  0.00  0.00    +0.150 S 
ATOM      8  C7  <0> A   1       2.606   4.037  -0.002  0.00  0.00    -0.096 C 
ATOM      9  C8  <0> A   1       1.353   3.496   0.007  0.00  0.00    -0.077 C 
ATOM     10 Cl1  <0> A   1      -0.041   4.530   0.026  0.00  0.00    -0.024 Cl
ENDROOT
BRANCH   4  11
ATOM     11  N1  <0> A   1       3.689  -0.763  -0.037  0.00  0.00    +0.030 N 
ATOM     12  O3  <0> A   1       4.224  -1.069   1.003  0.00  0.00    -0.137 OA
ATOM     13  O4  <0> A   1       4.203  -1.058  -1.091  0.00  0.00    -0.123 OA
ENDBRANCH   4  11
BRANCH   8  14
ATOM     14  C9  <0> A   1       2.990   5.447   0.002  0.00  0.00    +0.549 C 
ATOM     15  O5  <0> A   1       4.174   5.760  -0.008  0.00  0.00    -0.659 OA
ATOM     16  O6  <0> A   1       2.127   6.316   0.015  0.00  0.00    -0.628 OA
ENDBRANCH   8  14
BRANCH   6  17
ATOM     17  O1  <0> A   1      -1.175  -0.685   0.010  0.00  0.00    -0.480 OA
ATOM     18  H2  <0> A   1      -1.525  -0.878  -0.871  0.00  0.00    +0.397 HD
ENDBRANCH   6  17
BRANCH   5  19
ATOM     19  O2  <0> A   1       1.197  -2.077  -0.020  0.00  0.00    -0.477 OA
ATOM     20  H3  <0> A   1       1.203  -2.475   0.861  0.00  0.00    +0.405 HD
ENDBRANCH   5  19
TORSDOF 4
ENDMDL
MODEL       52
REMARK  Name = CHEMBL1089537
REMARK  10 active torsions:
REMARK  status: ('A' for Active; 'I' for Inactive)
REMARK    1  A    between atoms: C1_1  and  C2_2
REMARK    2  A    between atoms: C2_2  and  C3_3
REMARK    3  A    between atoms: C2_2  and  C4_4
REMARK    4  A    between atoms: C4_4  and  O2_6
REMARK    5  A    between atoms: O2_6  and  C5_7
REMARK    6  A    between atoms: C5_7  and  O3_8
REMARK    7  A    between atoms: O3_8  and  C6_9
REMARK    8  A    between atoms: C6_9  and  C7_11
REMARK    9  A    between atoms: C11_15  and  O8_24
REMARK   10  A    between atoms: C13_17  and  N1_20
REMARK                            x       y       z     vdW  Elec       q    Type
REMARK                         _______ _______ _______ _____ _____    ______ ____
ROOT
ATOM      1  C7  <0> A   1      -3.764  -2.802  -3.595  0.00  0.00    -0.269 C 
ATOM      2  C8  <0> A   1      -3.531  -3.577  -4.691  0.00  0.00    +0.101 C 
ATOM      3  C9  <0> A   1      -4.159  -3.271  -5.912  0.00  0.00    -0.216 A 
ATOM      4  C10 <0> A   1      -4.042  -3.953  -7.152  0.00  0.00    +0.109 A 
ATOM      5  C11 <0> A   1      -4.722  -3.524  -8.249  0.00  0.00    +0.018 A 
ATOM      6  C12 <0> A   1      -5.557  -2.403  -8.198  0.00  0.00    +0.331 A 
ATOM      7  C13 <0> A   1      -5.695  -1.713  -7.006  0.00  0.00    -0.165 A 
ATOM      8  C14 <0> A   1      -5.009  -2.141  -5.890  0.00  0.00    +0.012 A 
ATOM      9  S1  <0> A   1      -4.905  -1.576  -4.210  0.00  0.00    +0.117 S 
ATOM     10  O7  <0> A   1      -6.225  -1.994  -9.309  0.00  0.00    -0.621 OA
ATOM     11 Cl1  <0> A   1      -2.460  -4.939  -4.581  0.00  0.00    -0.034 Cl
ENDROOT
BRANCH   7  12
ATOM     12  N1  <0> A   1      -6.573  -0.524  -6.931  0.00  0.00    +0.061 N 
ATOM     13  O5  <0> A   1      -7.739  -0.651  -6.640  0.00  0.00    -0.161 OA
ATOM     14  O6  <0> A   1      -6.124   0.575  -7.162  0.00  0.00    -0.160 OA
ENDBRANCH   7  12
BRANCH   1  15
ATOM     15  C6  <0> A   1      -3.218  -2.945  -2.243  0.00  0.00    +0.560 C 
ATOM     16  O4  <0> A   1      -2.444  -3.848  -1.992  0.00  0.00    -0.478 OA
BRANCH  15  17
ATOM     17  O3  <0> A   1      -3.575  -2.074  -1.276  0.00  0.00    -0.349 OA
BRANCH  17  18
ATOM     18  C5  <0> A   1      -3.004  -2.272   0.018  0.00  0.00    +0.480 C 
BRANCH  18  19
ATOM     19  O2  <0> A   1      -1.639  -1.849   0.008  0.00  0.00    -0.355 OA
BRANCH  19  20
ATOM     20  C4  <0> A   1      -1.412  -0.526   0.013  0.00  0.00    +0.462 C 
ATOM     21  O1  <0> A   1      -2.341   0.247   0.026  0.00  0.00    -0.489 OA
BRANCH  20  23
ATOM     22  C1  <0> A   1      -0.019   1.526   0.010  0.00  0.00    +0.062 C 
ATOM     23  C2  <0> A   1       0.002  -0.004   0.002  0.00  0.00    +0.023 C 
ATOM     24  C3  <0> A   1       0.742  -0.511   1.242  0.00  0.00    +0.058 C 
ENDBRANCH  20  23
ENDBRANCH  19  20
ENDBRANCH  18  19
ENDBRANCH  17  18
ENDBRANCH  15  17
ENDBRANCH   1  15
BRANCH   5  25
ATOM     25  O8  <0> A   1      -4.587  -4.201  -9.422  0.00  0.00    -0.478 OA
ATOM     26  H11 <0> A   1      -5.229  -4.914  -9.541  0.00  0.00    +0.378 HD
ENDBRANCH   5  25
TORSDOF 8
ENDMDL
MODEL       53
REMARK  Name = CHEMBL1089537
REMARK  11 active torsions:
REMARK  status: ('A' for Active; 'I' for Inactive)
REMARK    1  A    between atoms: C1_1  and  C2_2
REMARK    2  A    between atoms: C2_2  and  C3_3
REMARK    3  A    between atoms: C2_2  and  C4_4
REMARK    4  A    between atoms: C4_4  and  O2_6
REMARK    5  A    between atoms: O2_6  and  C5_7
REMARK    6  A    between atoms: C5_7  and  O3_8
REMARK    7  A    between atoms: O3_8  and  C6_9
REMARK    8  A    between atoms: C6_9  and  C7_11
REMARK    9  A    between atoms: C11_15  and  O8_24
REMARK   10  A    between atoms: C12_16  and  O7_23
REMARK   11  A    between atoms: C13_17  and  N1_20
REMARK                            x       y       z     vdW  Elec       q    Type
REMARK                         _______ _______ _______ _____ _____    ______ ____
ROOT
ATOM      1  C7  <0> A   1      -3.764  -2.802  -3.595  0.00  0.00    -0.179 C 
ATOM      2  C8  <0> A   1      -3.531  -3.577  -4.691  0.00  0.00    +0.030 C 
ATOM      3  C9  <0> A   1      -4.159  -3.271  -5.912  0.00  0.00    -0.085 A 
ATOM      4  C10 <0> A   1      -4.042  -3.953  -7.152  0.00  0.00    +0.136 A 
ATOM      5  C11 <0> A   1      -4.722  -3.524  -8.249  0.00  0.00    +0.096 A 
ATOM      6  C12 <0> A   1      -5.557  -2.403  -8.198  0.00  0.00    +0.193 A 
ATOM      7  C13 <0> A   1      -5.695  -1.713  -7.006  0.00  0.00    -0.013 A 
ATOM      8  C14 <0> A   1      -5.009  -2.141  -5.890  0.00  0.00    -0.090 A 
ATOM      9  S1  <0> A   1      -4.905  -1.576  -4.210  0.00  0.00    +0.218 S 
ATOM     10 Cl1  <0> A   1      -2.460  -4.939  -4.581  0.00  0.00    +0.005 Cl
ENDROOT
BRANCH   7  11
ATOM     11  N1  <0> A   1      -6.573  -0.524  -6.931  0.00  0.00    +0.022 N 
ATOM     12  O5  <0> A   1      -7.739  -0.651  -6.640  0.00  0.00    -0.124 OA
ATOM     13  O6  <0> A   1      -6.124   0.575  -7.162  0.00  0.00    -0.109 OA
ENDBRANCH   7  11
BRANCH   1  14
ATOM     14  C6  <0> A   1      -3.218  -2.945  -2.243  0.00  0.00    +0.549 C 
ATOM     15  O4  <0> A   1      -2.444  -3.848  -1.992  0.00  0.00    -0.446 OA
BRANCH  14  16
ATOM     16  O3  <0> A   1      -3.575  -2.074  -1.276  0.00  0.00    -0.346 OA
BRANCH  16  17
ATOM     17  C5  <0> A   1      -3.004  -2.272   0.018  0.00  0.00    +0.493 C 
BRANCH  17  18
ATOM     18  O2  <0> A   1      -1.639  -1.849   0.008  0.00  0.00    -0.353 OA
BRANCH  18  19
ATOM     19  C4  <0> A   1      -1.412  -0.526   0.013  0.00  0.00    +0.462 C 
ATOM     20  O1  <0> A   1      -2.341   0.247   0.026  0.00  0.00    -0.488 OA
BRANCH  19  22
ATOM     21  C1  <0> A   1      -0.019   1.526   0.010  0.00  0.00    +0.065 C 
ATOM     22  C2  <0> A   1       0.002  -0.004   0.002  0.00  0.00    +0.024 C 
ATOM     23  C3  <0> A   1       0.742  -0.511   1.242  0.00  0.00    +0.061 C 
ENDBRANCH  19  22
ENDBRANCH  18  19
ENDBRANCH  17  18
ENDBRANCH  16  17
ENDBRANCH  14  16
ENDBRANCH   1  14
BRANCH   6  24
ATOM     24  O7  <0> A   1      -6.225  -1.994  -9.309  0.00  0.00    -0.467 OA
ATOM     25  H11 <0> A   1      -7.100  -2.393  -9.410  0.00  0.00    +0.412 HD
ENDBRANCH   6  24
BRANCH   5  26
ATOM     26  O8  <0> A   1      -4.587  -4.201  -9.422  0.00  0.00    -0.468 OA
ATOM     27  H12 <0> A   1      -5.229  -4.914  -9.541  0.00  0.00    +0.401 HD
ENDBRANCH   5  26
TORSDOF 9
ENDMDL
MODEL       54
REMARK  Name = CHEMBL1089536
REMARK  6 active torsions:
REMARK  status: ('A' for Active; 'I' for Inactive)
REMARK    1  A    between atoms: C4_4  and  C7_7
REMARK    2  A    between atoms: C7_7  and  O1_8
REMARK    3  A    between atoms: O1_8  and  C8_9
REMARK    4  A    between atoms: C8_9  and  C9_11
REMARK    5  A    between atoms: C13_15  and  O6_24
REMARK    6  A    between atoms: C15_17  and  N1_20
REMARK                            x       y       z     vdW  Elec       q    Type
REMARK                         _______ _______ _______ _____ _____    ______ ____
ROOT
ATOM      1  C9  <0> A   1       5.813  -1.880   2.812  0.00  0.00    -0.264 C 
ATOM      2  C10 <0> A   1       6.962  -2.516   3.175  0.00  0.00    +0.098 C 
ATOM      3  C11 <0> A   1       7.268  -2.688   4.537  0.00  0.00    -0.215 A 
ATOM      4  C12 <0> A   1       8.406  -3.318   5.107  0.00  0.00    +0.109 A 
ATOM      5  C13 <0> A   1       8.553  -3.402   6.456  0.00  0.00    +0.018 A 
ATOM      6  C14 <0> A   1       7.596  -2.874   7.329  0.00  0.00    +0.331 A 
ATOM      7  C15 <0> A   1       6.474  -2.252   6.810  0.00  0.00    -0.165 A 
ATOM      8  C16 <0> A   1       6.317  -2.163   5.443  0.00  0.00    +0.011 A 
ATOM      9  S1  <0> A   1       5.075  -1.466   4.383  0.00  0.00    +0.114 S 
ATOM     10  O5  <0> A   1       7.766  -2.972   8.674  0.00  0.00    -0.622 OA
ATOM     11 Cl1  <0> A   1       8.046  -3.115   1.958  0.00  0.00    -0.035 Cl
ENDROOT
BRANCH   7  12
ATOM     12  N1  <0> A   1       5.449  -1.687   7.716  0.00  0.00    +0.062 N 
ATOM     13  O3  <0> A   1       5.537  -0.540   8.088  0.00  0.00    -0.161 OA
ATOM     14  O4  <0> A   1       4.524  -2.373   8.084  0.00  0.00    -0.160 OA
ENDBRANCH   7  12
BRANCH   1  15
ATOM     15  C8  <0> A   1       5.310  -1.600   1.465  0.00  0.00    +0.560 C 
ATOM     16  O2  <0> A   1       5.946  -1.957   0.492  0.00  0.00    -0.490 OA
BRANCH  15  17
ATOM     17  O1  <0> A   1       4.141  -0.946   1.304  0.00  0.00    -0.340 OA
BRANCH  17  18
ATOM     18  C7  <0> A   1       3.711  -0.707  -0.038  0.00  0.00    +0.267 C 
BRANCH  18  22
ATOM     19  C1  <0> A   1      -0.017   1.378   0.010  0.00  0.00    +0.013 A 
ATOM     20  C2  <0> A   1       1.171   2.086   0.002  0.00  0.00    +0.001 A 
ATOM     21  C3  <0> A   1       2.377   1.411  -0.013  0.00  0.00    +0.031 A 
ATOM     22  C4  <0> A   1       2.396   0.029  -0.020  0.00  0.00    -0.096 A 
ATOM     23  C5  <0> A   1       1.208  -0.679  -0.012  0.00  0.00    +0.031 A 
ATOM     24  C6  <0> A   1       0.002  -0.004   0.002  0.00  0.00    +0.002 A 
ENDBRANCH  18  22
ENDBRANCH  17  18
ENDBRANCH  15  17
ENDBRANCH   1  15
BRANCH   5  25
ATOM     25  O6  <0> A   1       9.656  -4.014   6.968  0.00  0.00    -0.478 OA
ATOM     26  H9  <0> A   1      10.402  -3.418   7.117  0.00  0.00    +0.378 HD
ENDBRANCH   5  25
TORSDOF 6
ENDMDL
MODEL       55
REMARK  Name = CHEMBL1089536
REMARK  7 active torsions:
REMARK  status: ('A' for Active; 'I' for Inactive)
REMARK    1  A    between atoms: C4_4  and  C7_7
REMARK    2  A    between atoms: C7_7  and  O1_8
REMARK    3  A    between atoms: O1_8  and  C8_9
REMARK    4  A    between atoms: C8_9  and  C9_11
REMARK    5  A    between atoms: C13_15  and  O6_24
REMARK    6  A    between atoms: C14_16  and  O5_23
REMARK    7  A    between atoms: C15_17  and  N1_20
REMARK                            x       y       z     vdW  Elec       q    Type
REMARK                         _______ _______ _______ _____ _____    ______ ____
ROOT
ATOM      1  C9  <0> A   1       5.813  -1.880   2.812  0.00  0.00    -0.173 C 
ATOM      2  C10 <0> A   1       6.962  -2.516   3.175  0.00  0.00    +0.027 C 
ATOM      3  C11 <0> A   1       7.268  -2.688   4.537  0.00  0.00    -0.083 A 
ATOM      4  C12 <0> A   1       8.406  -3.318   5.107  0.00  0.00    +0.135 A 
ATOM      5  C13 <0> A   1       8.553  -3.402   6.456  0.00  0.00    +0.095 A 
ATOM      6  C14 <0> A   1       7.596  -2.874   7.329  0.00  0.00    +0.192 A 
ATOM      7  C15 <0> A   1       6.474  -2.252   6.810  0.00  0.00    -0.013 A 
ATOM      8  C16 <0> A   1       6.317  -2.163   5.443  0.00  0.00    -0.091 A 
ATOM      9  S1  <0> A   1       5.075  -1.466   4.383  0.00  0.00    +0.216 S 
ATOM     10 Cl1  <0> A   1       8.046  -3.115   1.958  0.00  0.00    +0.004 Cl
ENDROOT
BRANCH   7  11
ATOM     11  N1  <0> A   1       5.449  -1.687   7.716  0.00  0.00    +0.023 N 
ATOM     12  O3  <0> A   1       5.537  -0.540   8.088  0.00  0.00    -0.125 OA
ATOM     13  O4  <0> A   1       4.524  -2.373   8.084  0.00  0.00    -0.110 OA
ENDBRANCH   7  11
BRANCH   1  14
ATOM     14  C8  <0> A   1       5.310  -1.600   1.465  0.00  0.00    +0.549 C 
ATOM     15  O2  <0> A   1       5.946  -1.957   0.492  0.00  0.00    -0.460 OA
BRANCH  14  16
ATOM     16  O1  <0> A   1       4.141  -0.946   1.304  0.00  0.00    -0.336 OA
BRANCH  16  17
ATOM     17  C7  <0> A   1       3.711  -0.707  -0.038  0.00  0.00    +0.281 C 
BRANCH  17  21
ATOM     18  C1  <0> A   1      -0.017   1.378   0.010  0.00  0.00    +0.022 A 
ATOM     19  C2  <0> A   1       1.171   2.086   0.002  0.00  0.00    +0.005 A 
ATOM     20  C3  <0> A   1       2.377   1.411  -0.013  0.00  0.00    +0.032 A 
ATOM     21  C4  <0> A   1       2.396   0.029  -0.020  0.00  0.00    -0.104 A 
ATOM     22  C5  <0> A   1       1.208  -0.679  -0.012  0.00  0.00    +0.033 A 
ATOM     23  C6  <0> A   1       0.002  -0.004   0.002  0.00  0.00    +0.005 A 
ENDBRANCH  17  21
ENDBRANCH  16  17
ENDBRANCH  14  16
ENDBRANCH   1  14
BRANCH   6  24
ATOM     24  O5  <0> A   1       7.766  -2.972   8.674  0.00  0.00    -0.467 OA
ATOM     25  H9  <0> A   1       8.244  -2.227   9.064  0.00  0.00    +0.412 HD
ENDBRANCH   6  24
BRANCH   5  26
ATOM     26  O6  <0> A   1       9.656  -4.014   6.968  0.00  0.00    -0.469 OA
ATOM     27  H10 <0> A   1      10.402  -3.418   7.117  0.00  0.00    +0.401 HD
ENDBRANCH   5  26
TORSDOF 7
ENDMDL
MODEL       56
REMARK  Name = CHEMBL1091204
REMARK  7 active torsions:
REMARK  status: ('A' for Active; 'I' for Inactive)
REMARK    1  A    between atoms: C1_1  and  C2_2
REMARK    2  A    between atoms: C2_2  and  C3_3
REMARK    3  A    between atoms: C2_2  and  O1_4
REMARK    4  A    between atoms: O1_4  and  C4_5
REMARK    5  A    between atoms: C4_5  and  C5_7
REMARK    6  A    between atoms: C9_11  and  O6_20
REMARK    7  A    between atoms: C11_13  and  N1_16
REMARK                            x       y       z     vdW  Elec       q    Type
REMARK                         _______ _______ _______ _____ _____    ______ ____
ROOT
ATOM      1  C5  <0> A   1       2.756  -1.123  -2.252  0.00  0.00    -0.263 C 
ATOM      2  C6  <0> A   1       4.091  -1.373  -2.358  0.00  0.00    +0.097 C 
ATOM      3  C7  <0> A   1       4.625  -1.825  -3.578  0.00  0.00    -0.215 A 
ATOM      4  C8  <0> A   1       5.977  -2.137  -3.881  0.00  0.00    +0.108 A 
ATOM      5  C9  <0> A   1       6.332  -2.565  -5.122  0.00  0.00    +0.018 A 
ATOM      6  C10 <0> A   1       5.385  -2.713  -6.141  0.00  0.00    +0.330 A 
ATOM      7  C11 <0> A   1       4.058  -2.418  -5.883  0.00  0.00    -0.165 A 
ATOM      8  C12 <0> A   1       3.689  -1.984  -4.628  0.00  0.00    +0.011 A 
ATOM      9  S1  <0> A   1       2.147  -1.517  -3.883  0.00  0.00    +0.113 S 
ATOM     10  O5  <0> A   1       5.765  -3.142  -7.373  0.00  0.00    -0.622 OA
ATOM     11 Cl1  <0> A   1       5.131  -1.135  -0.988  0.00  0.00    -0.035 Cl
ENDROOT
BRANCH   7  12
ATOM     12  N1  <0> A   1       3.040  -2.568  -6.947  0.00  0.00    +0.062 N 
ATOM     13  O3  <0> A   1       2.462  -3.621  -7.087  0.00  0.00    -0.161 OA
ATOM     14  O4  <0> A   1       2.787  -1.638  -7.677  0.00  0.00    -0.160 OA
ENDBRANCH   7  12
BRANCH   1  15
ATOM     15  C4  <0> A   1       2.004  -0.651  -1.087  0.00  0.00    +0.560 C 
ATOM     16  O2  <0> A   1       2.582  -0.429  -0.040  0.00  0.00    -0.491 OA
BRANCH  15  17
ATOM     17  O1  <0> A   1       0.671  -0.465  -1.174  0.00  0.00    -0.341 OA
BRANCH  17  19
ATOM     18  C1  <0> A   1      -0.019   1.526   0.010  0.00  0.00    +0.029 C 
ATOM     19  C2  <0> A   1       0.002  -0.004   0.002  0.00  0.00    +0.165 C 
ATOM     20  C3  <0> A   1      -1.433  -0.534   0.013  0.00  0.00    +0.061 C 
ENDBRANCH  17  19
ENDBRANCH  15  17
ENDBRANCH   1  15
BRANCH   5  21
ATOM     21  O6  <0> A   1       7.636  -2.854  -5.378  0.00  0.00    -0.478 OA
ATOM     22  H9  <0> A   1       7.876  -3.775  -5.203  0.00  0.00    +0.378 HD
ENDBRANCH   5  21
TORSDOF 5
ENDMDL
MODEL       57
REMARK  Name = CHEMBL1091204
REMARK  8 active torsions:
REMARK  status: ('A' for Active; 'I' for Inactive)
REMARK    1  A    between atoms: C1_1  and  C2_2
REMARK    2  A    between atoms: C2_2  and  C3_3
REMARK    3  A    between atoms: C2_2  and  O1_4
REMARK    4  A    between atoms: O1_4  and  C4_5
REMARK    5  A    between atoms: C4_5  and  C5_7
REMARK    6  A    between atoms: C9_11  and  O6_20
REMARK    7  A    between atoms: C10_12  and  O5_19
REMARK    8  A    between atoms: C11_13  and  N1_16
REMARK                            x       y       z     vdW  Elec       q    Type
REMARK                         _______ _______ _______ _____ _____    ______ ____
ROOT
ATOM      1  C5  <0> A   1       0.596  -1.183   3.491  0.00  0.00    -0.173 C 
ATOM      2  C6  <0> A   1       0.024  -1.467   4.694  0.00  0.00    +0.026 C 
ATOM      3  C7  <0> A   1       0.821  -1.928   5.758  0.00  0.00    -0.083 A 
ATOM      4  C8  <0> A   1       0.412  -2.273   7.074  0.00  0.00    +0.134 A 
ATOM      5  C9  <0> A   1       1.316  -2.705   7.993  0.00  0.00    +0.096 A 
ATOM      6  C10 <0> A   1       2.675  -2.826   7.680  0.00  0.00    +0.191 A 
ATOM      7  C11 <0> A   1       3.109  -2.499   6.407  0.00  0.00    -0.012 A 
ATOM      8  C12 <0> A   1       2.200  -2.060   5.470  0.00  0.00    -0.091 A 
ATOM      9  S1  <0> A   1       2.318  -1.557   3.771  0.00  0.00    +0.214 S 
ATOM     10 Cl1  <0> A   1      -1.686  -1.260   4.915  0.00  0.00    +0.004 Cl
ENDROOT
BRANCH   7  11
ATOM     11  N1  <0> A   1       4.542  -2.619   6.056  0.00  0.00    +0.023 N 
ATOM     12  O3  <0> A   1       4.969  -3.656   5.604  0.00  0.00    -0.125 OA
ATOM     13  O4  <0> A   1       5.286  -1.680   6.220  0.00  0.00    -0.110 OA
ENDBRANCH   7  11
BRANCH   1  14
ATOM     14  C4  <0> A   1      -0.046  -0.698   2.267  0.00  0.00    +0.548 C 
ATOM     15  O2  <0> A   1      -1.244  -0.493   2.248  0.00  0.00    -0.460 OA
BRANCH  14  16
ATOM     16  O1  <0> A   1       0.693  -0.477   1.160  0.00  0.00    -0.337 OA
BRANCH  16  18
ATOM     17  C1  <0> A   1      -0.019   1.526   0.010  0.00  0.00    +0.037 C 
ATOM     18  C2  <0> A   1       0.002  -0.004   0.002  0.00  0.00    +0.171 C 
ATOM     19  C3  <0> A   1       0.718  -0.497  -1.257  0.00  0.00    +0.069 C 
ENDBRANCH  16  18
ENDBRANCH  14  16
ENDBRANCH   1  14
BRANCH   6  20
ATOM     20  O5  <0> A   1       3.558  -3.260   8.617  0.00  0.00    -0.467 OA
ATOM     21  H9  <0> A   1       3.680  -4.219   8.628  0.00  0.00    +0.412 HD
ENDBRANCH   6  20
BRANCH   5  22
ATOM     22  O6  <0> A   1       0.891  -3.026   9.245  0.00  0.00    -0.469 OA
ATOM     23  H10 <0> A   1       0.633  -3.953   9.347  0.00  0.00    +0.401 HD
ENDBRANCH   5  22
TORSDOF 6
ENDMDL
MODEL       58
REMARK  Name = CHEMBL1089630
REMARK  8 active torsions:
REMARK  status: ('A' for Active; 'I' for Inactive)
REMARK    1  A    between atoms: C1_1  and  C2_2
REMARK    2  A    between atoms: C2_2  and  C3_3
REMARK    3  A    between atoms: C3_3  and  C4_4
REMARK    4  A    between atoms: C4_4  and  O1_5
REMARK    5  A    between atoms: O1_5  and  C5_6
REMARK    6  A    between atoms: C5_6  and  C6_8
REMARK    7  A    between atoms: C10_12  and  O6_21
REMARK    8  A    between atoms: C12_14  and  N1_17
REMARK                            x       y       z     vdW  Elec       q    Type
REMARK                         _______ _______ _______ _____ _____    ______ ____
ROOT
ATOM      1  C6  <0> A   1      -4.258  -4.476   0.019  0.00  0.00    -0.264 C 
ATOM      2  C7  <0> A   1      -4.617  -5.790   0.021  0.00  0.00    +0.098 C 
ATOM      3  C8  <0> A   1      -5.979  -6.144   0.031  0.00  0.00    -0.215 A 
ATOM      4  C9  <0> A   1      -6.546  -7.446   0.034  0.00  0.00    +0.108 A 
ATOM      5  C10 <0> A   1      -7.894  -7.619   0.043  0.00  0.00    +0.018 A 
ATOM      6  C11 <0> A   1      -8.770  -6.527   0.050  0.00  0.00    +0.331 A 
ATOM      7  C12 <0> A   1      -8.253  -5.243   0.048  0.00  0.00    -0.165 A 
ATOM      8  C13 <0> A   1      -6.887  -5.059   0.038  0.00  0.00    +0.011 A 
ATOM      9  S1  <0> A   1      -5.830  -3.633   0.039  0.00  0.00    +0.113 S 
ATOM     10  O5  <0> A   1     -10.114  -6.726   0.059  0.00  0.00    -0.622 OA
ATOM     11 Cl1  <0> A   1      -3.398  -7.026   0.010  0.00  0.00    -0.035 Cl
ENDROOT
BRANCH   7  12
ATOM     12  N1  <0> A   1      -9.162  -4.074   0.055  0.00  0.00    +0.062 N 
ATOM     13  O3  <0> A   1      -9.526  -3.598   1.104  0.00  0.00    -0.161 OA
ATOM     14  O4  <0> A   1      -9.540  -3.596  -0.990  0.00  0.00    -0.160 OA
ENDBRANCH   7  12
BRANCH   1  15
ATOM     15  C5  <0> A   1      -2.912  -3.898   0.009  0.00  0.00    +0.560 C 
ATOM     16  O2  <0> A   1      -1.937  -4.625  -0.004  0.00  0.00    -0.491 OA
BRANCH  15  17
ATOM     17  O1  <0> A   1      -2.753  -2.558   0.015  0.00  0.00    -0.346 OA
BRANCH  17  18
ATOM     18  C4  <0> A   1      -1.413  -2.063   0.004  0.00  0.00    +0.204 C 
BRANCH  18  19
ATOM     19  C3  <0> A   1      -1.433  -0.534   0.013  0.00  0.00    +0.030 C 
BRANCH  19  21
ATOM     20  C1  <0> A   1      -0.019   1.526   0.010  0.00  0.00    +0.016 C 
ATOM     21  C2  <0> A   1       0.002  -0.004   0.002  0.00  0.00    +0.009 C 
ENDBRANCH  19  21
ENDBRANCH  18  19
ENDBRANCH  17  18
ENDBRANCH  15  17
ENDBRANCH   1  15
BRANCH   5  22
ATOM     22  O6  <0> A   1      -8.404  -8.880   0.045  0.00  0.00    -0.478 OA
ATOM     23  H11 <0> A   1      -8.545  -9.246   0.929  0.00  0.00    +0.378 HD
ENDBRANCH   5  22
TORSDOF 7
ENDMDL
MODEL       59
REMARK  Name = CHEMBL1089630
REMARK  9 active torsions:
REMARK  status: ('A' for Active; 'I' for Inactive)
REMARK    1  A    between atoms: C1_1  and  C2_2
REMARK    2  A    between atoms: C2_2  and  C3_3
REMARK    3  A    between atoms: C3_3  and  C4_4
REMARK    4  A    between atoms: C4_4  and  O1_5
REMARK    5  A    between atoms: O1_5  and  C5_6
REMARK    6  A    between atoms: C5_6  and  C6_8
REMARK    7  A    between atoms: C10_12  and  O6_21
REMARK    8  A    between atoms: C11_13  and  O5_20
REMARK    9  A    between atoms: C12_14  and  N1_17
REMARK                            x       y       z     vdW  Elec       q    Type
REMARK                         _______ _______ _______ _____ _____    ______ ____
ROOT
ATOM      1  C6  <0> A   1      -4.258  -4.476   0.019  0.00  0.00    -0.173 C 
ATOM      2  C7  <0> A   1      -4.617  -5.790   0.021  0.00  0.00    +0.026 C 
ATOM      3  C8  <0> A   1      -5.979  -6.144   0.031  0.00  0.00    -0.083 A 
ATOM      4  C9  <0> A   1      -6.546  -7.446   0.034  0.00  0.00    +0.135 A 
ATOM      5  C10 <0> A   1      -7.894  -7.619   0.043  0.00  0.00    +0.096 A 
ATOM      6  C11 <0> A   1      -8.770  -6.527   0.050  0.00  0.00    +0.191 A 
ATOM      7  C12 <0> A   1      -8.253  -5.243   0.048  0.00  0.00    -0.013 A 
ATOM      8  C13 <0> A   1      -6.887  -5.059   0.038  0.00  0.00    -0.091 A 
ATOM      9  S1  <0> A   1      -5.830  -3.633   0.039  0.00  0.00    +0.214 S 
ATOM     10 Cl1  <0> A   1      -3.398  -7.026   0.010  0.00  0.00    +0.004 Cl
ENDROOT
BRANCH   7  11
ATOM     11  N1  <0> A   1      -9.162  -4.074   0.055  0.00  0.00    +0.023 N 
ATOM     12  O3  <0> A   1      -9.526  -3.598   1.104  0.00  0.00    -0.125 OA
ATOM     13  O4  <0> A   1      -9.540  -3.596  -0.990  0.00  0.00    -0.110 OA
ENDBRANCH   7  11
BRANCH   1  14
ATOM     14  C5  <0> A   1      -2.912  -3.898   0.009  0.00  0.00    +0.548 C 
ATOM     15  O2  <0> A   1      -1.937  -4.625  -0.004  0.00  0.00    -0.460 OA
BRANCH  14  16
ATOM     16  O1  <0> A   1      -2.753  -2.558   0.015  0.00  0.00    -0.341 OA
BRANCH  16  17
ATOM     17  C4  <0> A   1      -1.413  -2.063   0.004  0.00  0.00    +0.216 C 
BRANCH  17  18
ATOM     18  C3  <0> A   1      -1.433  -0.534   0.013  0.00  0.00    +0.033 C 
BRANCH  18  20
ATOM     19  C1  <0> A   1      -0.019   1.526   0.010  0.00  0.00    +0.020 C 
ATOM     20  C2  <0> A   1       0.002  -0.004   0.002  0.00  0.00    +0.012 C 
ENDBRANCH  18  20
ENDBRANCH  17  18
ENDBRANCH  16  17
ENDBRANCH  14  16
ENDBRANCH   1  14
BRANCH   6  21
ATOM     21  O5  <0> A   1     -10.114  -6.726   0.059  0.00  0.00    -0.467 OA
ATOM     22  H11 <0> A   1     -10.497  -6.784   0.945  0.00  0.00    +0.412 HD
ENDBRANCH   6  21
BRANCH   5  23
ATOM     23  O6  <0> A   1      -8.404  -8.880   0.045  0.00  0.00    -0.469 OA
ATOM     24  H12 <0> A   1      -8.545  -9.246   0.929  0.00  0.00    +0.401 HD
ENDBRANCH   5  23
TORSDOF 8
ENDMDL
MODEL       60
REMARK  Name = CHEMBL1091983
REMARK  6 active torsions:
REMARK  status: ('A' for Active; 'I' for Inactive)
REMARK    1  A    between atoms: C4_4  and  N1_9
REMARK    2  A    between atoms: C6_6  and  O1_7
REMARK    3  A    between atoms: C7_13  and  C9_16
REMARK    4  A    between atoms: C9_16  and  O6_18
REMARK    5  A    between atoms: O6_18  and  C10_19
REMARK    6  A    between atoms: C10_19  and  C11_20
REMARK                            x       y       z     vdW  Elec       q    Type
REMARK                         _______ _______ _______ _____ _____    ______ ____
ROOT
ATOM      1  C1  <0> A   1      -0.016   1.355   0.009  0.00  0.00    +0.109 A 
ATOM      2  C2  <0> A   1       1.194   2.100   0.002  0.00  0.00    -0.216 A 
ATOM      3  C3  <0> A   1       2.395   1.352  -0.014  0.00  0.00    +0.014 A 
ATOM      4  C4  <0> A   1       2.404  -0.026  -0.021  0.00  0.00    -0.164 A 
ATOM      5  C5  <0> A   1       1.205  -0.718  -0.014  0.00  0.00    +0.331 A 
ATOM      6  C6  <0> A   1       0.002  -0.004   0.002  0.00  0.00    +0.019 A 
ATOM      7  O2  <0> A   1       1.197  -2.077  -0.022  0.00  0.00    -0.619 OA
ATOM      8  S1  <0> A   1       3.659   2.598  -0.019  0.00  0.00    +0.115 S 
ATOM      9  C7  <0> A   1       2.604   4.037  -0.002  0.00  0.00    -0.271 C 
ATOM     10  C8  <0> A   1       1.353   3.497   0.007  0.00  0.00    +0.104 C 
ATOM     11 Cl1  <0> A   1      -0.041   4.531   0.026  0.00  0.00    -0.033 Cl
ENDROOT
BRANCH   4  12
ATOM     12  N1  <0> A   1       3.689  -0.762  -0.038  0.00  0.00    +0.061 N 
ATOM     13  O3  <0> A   1       4.223  -1.069   1.002  0.00  0.00    -0.159 OA
ATOM     14  O4  <0> A   1       4.203  -1.057  -1.092  0.00  0.00    -0.160 OA
ENDBRANCH   4  12
BRANCH   6  15
ATOM     15  O1  <0> A   1      -1.175  -0.685   0.010  0.00  0.00    -0.478 OA
ATOM     16  H2  <0> A   1      -1.525  -0.878  -0.871  0.00  0.00    +0.379 HD
ENDBRANCH   6  15
BRANCH   9  17
ATOM     17  C9  <0> A   1       2.988   5.451   0.002  0.00  0.00    +0.568 C 
ATOM     18  O5  <0> A   1       2.131   6.314   0.015  0.00  0.00    -0.486 OA
BRANCH  17  19
ATOM     19  O6  <0> A   1       4.292   5.796  -0.009  0.00  0.00    -0.342 OA
BRANCH  19  20
ATOM     20  C10 <0> A   1       4.594   7.192  -0.004  0.00  0.00    +0.367 C 
BRANCH  20  21
ATOM     21  C11 <0> A   1       6.089   7.383  -0.018  0.00  0.00    -0.035 C 
ATOM     22  C12 <0> A   1       6.791   7.941  -0.991  0.00  0.00    +0.216 C 
ATOM     23  O7  <0> A   1       8.098   7.928  -0.631  0.00  0.00    -0.241 OA
ATOM     24  C13 <0> A   1       8.187   7.354   0.580  0.00  0.00    +0.573 C 
ATOM     25  O8  <0> A   1       9.209   7.174   1.214  0.00  0.00    -0.420 OA
ATOM     26  O9  <0> A   1       6.946   7.019   0.967  0.00  0.00    -0.232 OA
ENDBRANCH  20  21
ENDBRANCH  19  20
ENDBRANCH  17  19
ENDBRANCH   9  17
TORSDOF 6
ENDMDL
MODEL       61
REMARK  Name = CHEMBL1091983
REMARK  7 active torsions:
REMARK  status: ('A' for Active; 'I' for Inactive)
REMARK    1  A    between atoms: C4_4  and  N1_9
REMARK    2  A    between atoms: C5_5  and  O2_8
REMARK    3  A    between atoms: C6_6  and  O1_7
REMARK    4  A    between atoms: C7_13  and  C9_16
REMARK    5  A    between atoms: C9_16  and  O6_18
REMARK    6  A    between atoms: O6_18  and  C10_19
REMARK    7  A    between atoms: C10_19  and  C11_20
REMARK                            x       y       z     vdW  Elec       q    Type
REMARK                         _______ _______ _______ _____ _____    ______ ____
ROOT
ATOM      1  C1  <0> A   1      -0.016   1.355   0.009  0.00  0.00    +0.135 A 
ATOM      2  C2  <0> A   1       1.194   2.100   0.002  0.00  0.00    -0.086 A 
ATOM      3  C3  <0> A   1       2.395   1.352  -0.014  0.00  0.00    -0.088 A 
ATOM      4  C4  <0> A   1       2.404  -0.026  -0.021  0.00  0.00    -0.014 A 
ATOM      5  C5  <0> A   1       1.205  -0.718  -0.014  0.00  0.00    +0.196 A 
ATOM      6  C6  <0> A   1       0.002  -0.004   0.002  0.00  0.00    +0.097 A 
ATOM      7  S1  <0> A   1       3.659   2.598  -0.019  0.00  0.00    +0.217 S 
ATOM      8  C7  <0> A   1       2.604   4.037  -0.002  0.00  0.00    -0.181 C 
ATOM      9  C8  <0> A   1       1.353   3.497   0.007  0.00  0.00    +0.034 C 
ATOM     10 Cl1  <0> A   1      -0.041   4.531   0.026  0.00  0.00    +0.006 Cl
ENDROOT
BRANCH   4  11
ATOM     11  N1  <0> A   1       3.689  -0.762  -0.038  0.00  0.00    +0.022 N 
ATOM     12  O3  <0> A   1       4.223  -1.069   1.002  0.00  0.00    -0.123 OA
ATOM     13  O4  <0> A   1       4.203  -1.057  -1.092  0.00  0.00    -0.110 OA
ENDBRANCH   4  11
BRANCH   6  14
ATOM     14  O1  <0> A   1      -1.175  -0.685   0.010  0.00  0.00    -0.473 OA
ATOM     15  H2  <0> A   1      -1.525  -0.878  -0.871  0.00  0.00    +0.407 HD
ENDBRANCH   6  14
BRANCH   5  16
ATOM     16  O2  <0> A   1       1.197  -2.077  -0.022  0.00  0.00    -0.471 OA
ATOM     17  H3  <0> A   1       1.203  -2.475   0.859  0.00  0.00    +0.418 HD
ENDBRANCH   5  16
BRANCH   8  18
ATOM     18  C9  <0> A   1       2.988   5.451   0.002  0.00  0.00    +0.557 C 
ATOM     19  O5  <0> A   1       2.131   6.314   0.015  0.00  0.00    -0.455 OA
BRANCH  18  20
ATOM     20  O6  <0> A   1       4.292   5.796  -0.009  0.00  0.00    -0.339 OA
BRANCH  20  21
ATOM     21  C10 <0> A   1       4.594   7.192  -0.004  0.00  0.00    +0.381 C 
BRANCH  21  22
ATOM     22  C11 <0> A   1       6.089   7.383  -0.018  0.00  0.00    -0.049 C 
ATOM     23  C12 <0> A   1       6.791   7.941  -0.991  0.00  0.00    +0.232 C 
ATOM     24  O7  <0> A   1       8.098   7.928  -0.631  0.00  0.00    -0.238 OA
ATOM     25  C13 <0> A   1       8.187   7.354   0.580  0.00  0.00    +0.574 C 
ATOM     26  O8  <0> A   1       9.209   7.174   1.214  0.00  0.00    -0.413 OA
ATOM     27  O9  <0> A   1       6.946   7.019   0.967  0.00  0.00    -0.234 OA
ENDBRANCH  21  22
ENDBRANCH  20  21
ENDBRANCH  18  20
ENDBRANCH   8  18
TORSDOF 7
ENDMDL
MODEL       62
REMARK  Name = CHEMBL168451
REMARK  4 active torsions:
REMARK  status: ('A' for Active; 'I' for Inactive)
REMARK    1  A    between atoms: C2_2  and  C7_10
REMARK    2  A    between atoms: C5_5  and  O2_8
REMARK    3  A    between atoms: C6_6  and  O1_7
REMARK    4  A    between atoms: N1_12  and  C8_13
REMARK                            x       y       z     vdW  Elec       q    Type
REMARK                         _______ _______ _______ _____ _____    ______ ____
ROOT
ATOM      1  C7  <0> A   1       1.171   3.566   0.009  0.00  0.00    +0.565 C 
ATOM      2  O3  <0> A   1       0.112   4.163   0.022  0.00  0.00    -0.521 OA
ATOM      3  N1  <0> A   1       2.331   4.251   0.002  0.00  0.00    -0.719 N 
ATOM      4  H5  <0> A   1       3.176   3.775  -0.008  0.00  0.00    +0.399 HD
ENDROOT
BRANCH   3   5
ATOM      5  C8  <0> A   1       2.316   5.716   0.010  0.00  0.00    +0.184 C 
ATOM      6  C9  <0> A   1       1.578   6.225  -1.230  0.00  0.00    +0.024 C 
ATOM      7  C10 <0> A   1       1.562   7.755  -1.222  0.00  0.00    -0.009 C 
ATOM      8  C11 <0> A   1       3.000   8.280  -1.233  0.00  0.00    +0.017 C 
ATOM      9  C12 <0> A   1       3.738   7.771   0.007  0.00  0.00    -0.004 C 
ATOM     10  C13 <0> A   1       3.753   6.241  -0.001  0.00  0.00    +0.023 C 
ATOM     11  C14 <0> A   1       3.023   8.267   1.265  0.00  0.00    +0.017 C 
ATOM     12  C15 <0> A   1       1.586   7.742   1.276  0.00  0.00    -0.009 C 
ATOM     13  C16 <0> A   1       0.848   8.251   0.036  0.00  0.00    +0.019 C 
ATOM     14  C17 <0> A   1       1.601   6.213   1.268  0.00  0.00    +0.024 C 
ENDBRANCH   3   5
BRANCH   1  16
ATOM     15  C1  <0> A   1      -0.017   1.377   0.010  0.00  0.00    +0.088 A 
ATOM     16  C2  <0> A   1       1.186   2.090   0.002  0.00  0.00    -0.117 A 
ATOM     17  C3  <0> A   1       2.401   1.402  -0.013  0.00  0.00    +0.069 A 
ATOM     18  C4  <0> A   1       2.413   0.023  -0.021  0.00  0.00    -0.059 A 
ATOM     19  C5  <0> A   1       1.218  -0.685  -0.014  0.00  0.00    +0.119 A 
ATOM     20  C6  <0> A   1       0.002  -0.004   0.002  0.00  0.00    +0.091 A 
ATOM     21 Cl1  <0> A   1       3.925  -0.830  -0.040  0.00  0.00    -0.040 Cl
BRANCH  20  22
ATOM     22  O1  <0> A   1      -1.166  -0.700   0.010  0.00  0.00    -0.482 OA
ATOM     23  H3  <0> A   1      -1.513  -0.896  -0.871  0.00  0.00    +0.400 HD
ENDBRANCH  20  22
BRANCH  19  24
ATOM     24  O2  <0> A   1       1.235  -2.043  -0.022  0.00  0.00    -0.478 OA
ATOM     25  H4  <0> A   1       1.248  -2.442   0.859  0.00  0.00    +0.401 HD
ENDBRANCH  19  24
ENDBRANCH   1  16
TORSDOF 4
ENDMDL
MODEL       63
REMARK  Name = CHEMBL167054
REMARK  7 active torsions:
REMARK  status: ('A' for Active; 'I' for Inactive)
REMARK    1  A    between atoms: C1_1  and  C2_2
REMARK    2  A    between atoms: C2_2  and  C10_15
REMARK    3  A    between atoms: C3_3  and  C4_4
REMARK    4  A    between atoms: C6_6  and  N1_12
REMARK    5  A    between atoms: C7_7  and  O2_11
REMARK    6  A    between atoms: C8_8  and  O1_10
REMARK    7  A    between atoms: C10_15  and  C11_17
REMARK                            x       y       z     vdW  Elec       q    Type
REMARK                         _______ _______ _______ _____ _____    ______ ____
ROOT
ATOM      1  C4  <0> A   1       0.114   0.081   2.419  0.00  0.00    -0.063 A 
ATOM      2  C5  <0> A   1       0.352  -0.608   3.615  0.00  0.00    +0.136 A 
ATOM      3  C6  <0> A   1       0.356   0.074   4.812  0.00  0.00    -0.066 A 
ATOM      4  C7  <0> A   1       0.124   1.443   4.836  0.00  0.00    +0.161 A 
ATOM      5  C8  <0> A   1      -0.114   2.136   3.649  0.00  0.00    +0.084 A 
ATOM      6  C9  <0> A   1      -0.114   1.463   2.444  0.00  0.00    +0.096 A 
ENDROOT
BRANCH   1   9
ATOM      7  C1  <0> A   1      -1.858   0.706   0.462  0.00  0.00    +0.104 C 
ATOM      8  C2  <0> A   1      -0.774  -0.300   0.172  0.00  0.00    -0.188 C 
ATOM      9  C3  <0> A   1       0.109  -0.643   1.142  0.00  0.00    +0.124 C 
BRANCH   8  10
ATOM     10  C10 <0> A   1      -0.678  -0.884  -1.105  0.00  0.00    +0.387 C 
ATOM     11  O5  <0> A   1       0.196  -1.694  -1.339  0.00  0.00    -0.460 OA
ATOM     12  C11 <0> A   1      -1.660  -0.503  -2.183  0.00  0.00    +0.068 C 
ENDBRANCH   8  10
ENDBRANCH   1   9
BRANCH   3  13
ATOM     13  N1  <0> A   1       0.607  -0.655   6.075  0.00  0.00    +0.035 N 
ATOM     14  O3  <0> A   1       0.808  -1.847   6.056  0.00  0.00    -0.160 OA
ATOM     15  O4  <0> A   1       0.611  -0.058   7.127  0.00  0.00    -0.130 OA
ENDBRANCH   3  13
BRANCH   5  16
ATOM     16  O1  <0> A   1      -0.341   3.477   3.679  0.00  0.00    -0.471 OA
ATOM     17  H7  <0> A   1       0.460   4.013   3.600  0.00  0.00    +0.398 HD
ENDBRANCH   5  16
BRANCH   4  18
ATOM     18  O2  <0> A   1       0.129   2.110   6.019  0.00  0.00    -0.460 OA
ATOM     19  H8  <0> A   1       0.997   2.451   6.275  0.00  0.00    +0.406 HD
ENDBRANCH   4  18
TORSDOF 5
ENDMDL
MODEL       64
REMARK  Name = CHEMBL167054
REMARK  6 active torsions:
REMARK  status: ('A' for Active; 'I' for Inactive)
REMARK    1  A    between atoms: C1_1  and  C2_2
REMARK    2  A    between atoms: C2_2  and  C10_15
REMARK    3  A    between atoms: C3_3  and  C4_4
REMARK    4  A    between atoms: C6_6  and  N1_12
REMARK    5  A    between atoms: C8_8  and  O1_10
REMARK    6  A    between atoms: C10_15  and  C11_17
REMARK                            x       y       z     vdW  Elec       q    Type
REMARK                         _______ _______ _______ _____ _____    ______ ____
ROOT
ATOM      1  C4  <0> A   1       0.114   0.081   2.419  0.00  0.00    -0.215 A 
ATOM      2  C5  <0> A   1       0.352  -0.608   3.615  0.00  0.00    +0.158 A 
ATOM      3  C6  <0> A   1       0.356   0.074   4.812  0.00  0.00    -0.199 A 
ATOM      4  C7  <0> A   1       0.124   1.443   4.836  0.00  0.00    +0.303 A 
ATOM      5  C8  <0> A   1      -0.114   2.136   3.649  0.00  0.00    -0.024 A 
ATOM      6  C9  <0> A   1      -0.114   1.463   2.444  0.00  0.00    +0.086 A 
ATOM      7  O2  <0> A   1       0.129   2.110   6.019  0.00  0.00    -0.611 OA
ENDROOT
BRANCH   1  10
ATOM      8  C1  <0> A   1      -1.858   0.706   0.462  0.00  0.00    +0.090 C 
ATOM      9  C2  <0> A   1      -0.774  -0.300   0.172  0.00  0.00    -0.268 C 
ATOM     10  C3  <0> A   1       0.109  -0.643   1.142  0.00  0.00    +0.177 C 
BRANCH   9  11
ATOM     11  C10 <0> A   1      -0.678  -0.884  -1.105  0.00  0.00    +0.393 C 
ATOM     12  O5  <0> A   1       0.196  -1.694  -1.339  0.00  0.00    -0.490 OA
ATOM     13  C11 <0> A   1      -1.660  -0.503  -2.183  0.00  0.00    +0.050 C 
ENDBRANCH   9  11
ENDBRANCH   1  10
BRANCH   3  14
ATOM     14  N1  <0> A   1       0.607  -0.655   6.075  0.00  0.00    +0.070 N 
ATOM     15  O3  <0> A   1       0.808  -1.847   6.056  0.00  0.00    -0.252 OA
ATOM     16  O4  <0> A   1       0.611  -0.058   7.127  0.00  0.00    -0.157 OA
ENDBRANCH   3  14
BRANCH   5  17
ATOM     17  O1  <0> A   1      -0.341   3.477   3.679  0.00  0.00    -0.480 OA
ATOM     18  H7  <0> A   1       0.460   4.013   3.600  0.00  0.00    +0.369 HD
ENDBRANCH   5  17
TORSDOF 4
ENDMDL
MODEL       65
REMARK  Name = CHEMBL197115
REMARK  6 active torsions:
REMARK  status: ('A' for Active; 'I' for Inactive)
REMARK    1  A    between atoms: C4_4  and  C7_7
REMARK    2  A    between atoms: C7_7  and  C8_8
REMARK    3  A    between atoms: C8_8  and  C9_10
REMARK    4  A    between atoms: C12_13  and  O5_20
REMARK    5  A    between atoms: C13_14  and  O4_19
REMARK    6  A    between atoms: C14_15  and  N1_16
REMARK                            x       y       z     vdW  Elec       q    Type
REMARK                         _______ _______ _______ _____ _____    ______ ____
ROOT
ATOM      1  C9  <0> A   1       5.427  -1.666   1.629  0.00  0.00    -0.121 A 
ATOM      2  C10 <0> A   1       6.215  -2.100   0.556  0.00  0.00    +0.112 A 
ATOM      3  C11 <0> A   1       7.398  -2.762   0.794  0.00  0.00    +0.056 A 
ATOM      4  C12 <0> A   1       7.815  -2.999   2.098  0.00  0.00    +0.131 A 
ATOM      5  C13 <0> A   1       7.036  -2.570   3.173  0.00  0.00    +0.119 A 
ATOM      6  C14 <0> A   1       5.851  -1.901   2.943  0.00  0.00    +0.004 A 
ENDROOT
BRANCH   6   7
ATOM      7  N1  <0> A   1       5.026  -1.439   4.082  0.00  0.00    +0.037 N 
ATOM      8  O2  <0> A   1       4.178  -2.164   4.548  0.00  0.00    -0.117 OA
ATOM      9  O3  <0> A   1       5.200  -0.337   4.546  0.00  0.00    -0.132 OA
ENDBRANCH   6   7
BRANCH   1  10
ATOM     10  C8  <0> A   1       4.164  -0.959   1.377  0.00  0.00    +0.383 C 
ATOM     11  O1  <0> A   1       3.486  -0.579   2.308  0.00  0.00    -0.415 OA
BRANCH  10  12
ATOM     12  C7  <0> A   1       3.711  -0.707  -0.038  0.00  0.00    +0.113 C 
BRANCH  12  16
ATOM     13  C1  <0> A   1      -0.017   1.378   0.010  0.00  0.00    +0.009 A 
ATOM     14  C2  <0> A   1       1.171   2.086   0.002  0.00  0.00    +0.007 A 
ATOM     15  C3  <0> A   1       2.377   1.411  -0.013  0.00  0.00    +0.014 A 
ATOM     16  C4  <0> A   1       2.396   0.029  -0.020  0.00  0.00    -0.085 A 
ATOM     17  C5  <0> A   1       1.208  -0.679  -0.012  0.00  0.00    +0.015 A 
ATOM     18  C6  <0> A   1       0.002  -0.004   0.002  0.00  0.00    +0.008 A 
ENDBRANCH  12  16
ENDBRANCH  10  12
ENDBRANCH   1  10
BRANCH   5  19
ATOM     19  O4  <0> A   1       7.447  -2.806   4.448  0.00  0.00    -0.473 OA
ATOM     20  H10 <0> A   1       7.997  -2.102   4.820  0.00  0.00    +0.404 HD
ENDBRANCH   5  19
BRANCH   4  21
ATOM     21  O5  <0> A   1       8.983  -3.652   2.327  0.00  0.00    -0.472 OA
ATOM     22  H11 <0> A   1       9.752  -3.070   2.397  0.00  0.00    +0.403 HD
ENDBRANCH   4  21
TORSDOF 6
ENDMDL
MODEL       66
REMARK  Name = CHEMBL197115
REMARK  5 active torsions:
REMARK  status: ('A' for Active; 'I' for Inactive)
REMARK    1  A    between atoms: C4_4  and  C7_7
REMARK    2  A    between atoms: C7_7  and  C8_8
REMARK    3  A    between atoms: C8_8  and  C9_10
REMARK    4  A    between atoms: C13_14  and  O4_19
REMARK    5  A    between atoms: C14_15  and  N1_16
REMARK                            x       y       z     vdW  Elec       q    Type
REMARK                         _______ _______ _______ _____ _____    ______ ____
ROOT
ATOM      1  C9  <0> A   1       5.427  -1.666   1.629  0.00  0.00    -0.280 A 
ATOM      2  C10 <0> A   1       6.215  -2.100   0.556  0.00  0.00    +0.115 A 
ATOM      3  C11 <0> A   1       7.398  -2.762   0.794  0.00  0.00    -0.119 A 
ATOM      4  C12 <0> A   1       7.815  -2.999   2.098  0.00  0.00    +0.292 A 
ATOM      5  C13 <0> A   1       7.036  -2.570   3.173  0.00  0.00    -0.006 A 
ATOM      6  C14 <0> A   1       5.851  -1.901   2.943  0.00  0.00    +0.057 A 
ATOM      7  O5  <0> A   1       8.983  -3.652   2.327  0.00  0.00    -0.659 OA
ENDROOT
BRANCH   6   8
ATOM      8  N1  <0> A   1       5.026  -1.439   4.082  0.00  0.00    +0.052 N 
ATOM      9  O2  <0> A   1       4.178  -2.164   4.548  0.00  0.00    -0.151 OA
ATOM     10  O3  <0> A   1       5.200  -0.337   4.546  0.00  0.00    -0.166 OA
ENDBRANCH   6   8
BRANCH   1  11
ATOM     11  C8  <0> A   1       4.164  -0.959   1.377  0.00  0.00    +0.398 C 
ATOM     12  O1  <0> A   1       3.486  -0.579   2.308  0.00  0.00    -0.468 OA
BRANCH  11  13
ATOM     13  C7  <0> A   1       3.711  -0.707  -0.038  0.00  0.00    +0.090 C 
BRANCH  13  17
ATOM     14  C1  <0> A   1      -0.017   1.378   0.010  0.00  0.00    -0.007 A 
ATOM     15  C2  <0> A   1       1.171   2.086   0.002  0.00  0.00    +0.000 A 
ATOM     16  C3  <0> A   1       2.377   1.411  -0.013  0.00  0.00    +0.012 A 
ATOM     17  C4  <0> A   1       2.396   0.029  -0.020  0.00  0.00    -0.066 A 
ATOM     18  C5  <0> A   1       1.208  -0.679  -0.012  0.00  0.00    +0.012 A 
ATOM     19  C6  <0> A   1       0.002  -0.004   0.002  0.00  0.00    +0.000 A 
ENDBRANCH  13  17
ENDBRANCH  11  13
ENDBRANCH   1  11
BRANCH   5  20
ATOM     20  O4  <0> A   1       7.447  -2.806   4.448  0.00  0.00    -0.480 OA
ATOM     21  H10 <0> A   1       7.997  -2.102   4.820  0.00  0.00    +0.373 HD
ENDBRANCH   5  20
TORSDOF 5
ENDMDL
MODEL       67
REMARK  Name = CHEMBL197115
REMARK  5 active torsions:
REMARK  status: ('A' for Active; 'I' for Inactive)
REMARK    1  A    between atoms: C4_4  and  C7_7
REMARK    2  A    between atoms: C7_7  and  C8_8
REMARK    3  A    between atoms: C8_8  and  C9_10
REMARK    4  A    between atoms: C12_13  and  O5_20
REMARK    5  A    between atoms: C14_15  and  N1_16
REMARK                            x       y       z     vdW  Elec       q    Type
REMARK                         _______ _______ _______ _____ _____    ______ ____
ROOT
ATOM      1  C9  <0> A   1       5.427  -1.666   1.629  0.00  0.00    -0.087 A 
ATOM      2  C10 <0> A   1       6.215  -2.100   0.556  0.00  0.00    -0.048 A 
ATOM      3  C11 <0> A   1       7.398  -2.762   0.794  0.00  0.00    +0.034 A 
ATOM      4  C12 <0> A   1       7.815  -2.999   2.098  0.00  0.00    +0.012 A 
ATOM      5  C13 <0> A   1       7.036  -2.570   3.173  0.00  0.00    +0.273 A 
ATOM      6  C14 <0> A   1       5.851  -1.901   2.943  0.00  0.00    -0.137 A 
ATOM      7  O4  <0> A   1       7.447  -2.806   4.448  0.00  0.00    -0.674 OA
ENDROOT
BRANCH   6   8
ATOM      8  N1  <0> A   1       5.026  -1.439   4.082  0.00  0.00    +0.078 N 
ATOM      9  O2  <0> A   1       4.178  -2.164   4.548  0.00  0.00    -0.172 OA
ATOM     10  O3  <0> A   1       5.200  -0.337   4.546  0.00  0.00    -0.173 OA
ENDBRANCH   6   8
BRANCH   1  11
ATOM     11  C8  <0> A   1       4.164  -0.959   1.377  0.00  0.00    +0.386 C 
ATOM     12  O1  <0> A   1       3.486  -0.579   2.308  0.00  0.00    -0.436 OA
BRANCH  11  13
ATOM     13  C7  <0> A   1       3.711  -0.707  -0.038  0.00  0.00    +0.099 C 
BRANCH  13  17
ATOM     14  C1  <0> A   1      -0.017   1.378   0.010  0.00  0.00    -0.005 A 
ATOM     15  C2  <0> A   1       1.171   2.086   0.002  0.00  0.00    +0.001 A 
ATOM     16  C3  <0> A   1       2.377   1.411  -0.013  0.00  0.00    +0.013 A 
ATOM     17  C4  <0> A   1       2.396   0.029  -0.020  0.00  0.00    -0.070 A 
ATOM     18  C5  <0> A   1       1.208  -0.679  -0.012  0.00  0.00    +0.013 A 
ATOM     19  C6  <0> A   1       0.002  -0.004   0.002  0.00  0.00    +0.001 A 
ENDBRANCH  13  17
ENDBRANCH  11  13
ENDBRANCH   1  11
BRANCH   4  20
ATOM     20  O5  <0> A   1       8.983  -3.652   2.327  0.00  0.00    -0.481 OA
ATOM     21  H10 <0> A   1       9.752  -3.070   2.397  0.00  0.00    +0.372 HD
ENDBRANCH   4  20
TORSDOF 5
ENDMDL
MODEL       68
REMARK  Name = CHEMBL353012
REMARK  8 active torsions:
REMARK  status: ('A' for Active; 'I' for Inactive)
REMARK    1  A    between atoms: C1_1  and  C2_2
REMARK    2  A    between atoms: C2_2  and  O1_3
REMARK    3  A    between atoms: O1_3  and  C3_4
REMARK    4  A    between atoms: C3_4  and  C4_6
REMARK    5  A    between atoms: C4_6  and  C12_19
REMARK    6  A    between atoms: C5_7  and  C6_8
REMARK    7  A    between atoms: C8_10  and  N1_16
REMARK    8  A    between atoms: C10_12  and  O3_14
REMARK                            x       y       z     vdW  Elec       q    Type
REMARK                         _______ _______ _______ _____ _____    ______ ____
ROOT
ATOM      1  C6  <0> A   1       2.133  -4.256  -3.916  0.00  0.00    -0.241 A 
ATOM      2  C7  <0> A   1       1.636  -5.452  -4.455  0.00  0.00    +0.189 A 
ATOM      3  C8  <0> A   1       2.178  -5.962  -5.612  0.00  0.00    -0.196 A 
ATOM      4  C9  <0> A   1       3.217  -5.295  -6.251  0.00  0.00    +0.309 A 
ATOM      5  C10 <0> A   1       3.717  -4.104  -5.722  0.00  0.00    -0.010 A 
ATOM      6  C11 <0> A   1       3.178  -3.581  -4.565  0.00  0.00    +0.084 A 
ATOM      7  O4  <0> A   1       3.747  -5.803  -7.393  0.00  0.00    -0.595 OA
ENDROOT
BRANCH   3   8
ATOM      8  N1  <0> A   1       1.653  -7.224  -6.179  0.00  0.00    +0.068 N 
ATOM      9  O5  <0> A   1       0.750  -7.806  -5.625  0.00  0.00    -0.244 OA
ATOM     10  O6  <0> A   1       2.128  -7.674  -7.196  0.00  0.00    -0.152 OA
ENDBRANCH   3   8
BRANCH   1  12
ATOM     11  C4  <0> A   1       1.457  -2.345  -2.518  0.00  0.00    -0.174 C 
ATOM     12  C5  <0> A   1       1.559  -3.710  -2.685  0.00  0.00    +0.298 C 
BRANCH  11  13
ATOM     13  C3  <0> A   1       1.038  -1.793  -1.222  0.00  0.00    +0.530 C 
ATOM     14  O2  <0> A   1       0.781  -2.540  -0.297  0.00  0.00    -0.512 OA
BRANCH  13  15
ATOM     15  O1  <0> A   1       0.938  -0.459  -1.058  0.00  0.00    -0.349 OA
BRANCH  15  17
ATOM     16  C1  <0> A   1       0.471   1.537   0.222  0.00  0.00    +0.058 C 
ATOM     17  C2  <0> A   1       0.526   0.008   0.228  0.00  0.00    +0.199 C 
ENDBRANCH  15  17
ENDBRANCH  13  15
ENDBRANCH  11  13
BRANCH  11  18
ATOM     18  C12 <0> A   1       1.759  -1.466  -3.607  0.00  0.00    +0.270 C 
ATOM     19  N2  <0> A   1       1.999  -0.768  -4.471  0.00  0.00    -0.427 NA
ENDBRANCH  11  18
ENDBRANCH   1  12
BRANCH   5  20
ATOM     20  O3  <0> A   1       4.734  -3.456  -6.351  0.00  0.00    -0.479 OA
ATOM     21  H9  <0> A   1       4.442  -2.811  -7.009  0.00  0.00    +0.374 HD
ENDBRANCH   5  20
TORSDOF 7
ENDMDL
MODEL       69
REMARK  Name = CHEMBL353012
REMARK  9 active torsions:
REMARK  status: ('A' for Active; 'I' for Inactive)
REMARK    1  A    between atoms: C1_1  and  C2_2
REMARK    2  A    between atoms: C2_2  and  O1_3
REMARK    3  A    between atoms: O1_3  and  C3_4
REMARK    4  A    between atoms: C3_4  and  C4_6
REMARK    5  A    between atoms: C4_6  and  C12_19
REMARK    6  A    between atoms: C5_7  and  C6_8
REMARK    7  A    between atoms: C8_10  and  N1_16
REMARK    8  A    between atoms: C9_11  and  O4_15
REMARK    9  A    between atoms: C10_12  and  O3_14
REMARK                            x       y       z     vdW  Elec       q    Type
REMARK                         _______ _______ _______ _____ _____    ______ ____
ROOT
ATOM      1  C6  <0> A   1       2.137  -4.307  -3.891  0.00  0.00    -0.095 A 
ATOM      2  C7  <0> A   1       2.130  -5.699  -4.060  0.00  0.00    +0.163 A 
ATOM      3  C8  <0> A   1       2.674  -6.256  -5.194  0.00  0.00    -0.069 A 
ATOM      4  C9  <0> A   1       3.232  -5.443  -6.174  0.00  0.00    +0.177 A 
ATOM      5  C10 <0> A   1       3.244  -4.057  -6.014  0.00  0.00    +0.090 A 
ATOM      6  C11 <0> A   1       2.696  -3.488  -4.883  0.00  0.00    +0.100 A 
ENDROOT
BRANCH   3   7
ATOM      7  N1  <0> A   1       2.666  -7.726  -5.372  0.00  0.00    +0.034 N 
ATOM      8  O5  <0> A   1       2.181  -8.435  -4.521  0.00  0.00    -0.154 OA
ATOM      9  O6  <0> A   1       3.143  -8.217  -6.368  0.00  0.00    -0.127 OA
ENDBRANCH   3   7
BRANCH   1  11
ATOM     10  C4  <0> A   1       0.908  -2.497  -2.760  0.00  0.00    -0.085 C 
ATOM     11  C5  <0> A   1       1.559  -3.710  -2.685  0.00  0.00    +0.258 C 
BRANCH  10  12
ATOM     12  C3  <0> A   1       0.475  -1.818  -1.531  0.00  0.00    +0.521 C 
ATOM     13  O2  <0> A   1       0.690  -2.326  -0.448  0.00  0.00    -0.487 OA
BRANCH  12  14
ATOM     14  O1  <0> A   1      -0.161  -0.631  -1.605  0.00  0.00    -0.344 OA
BRANCH  14  16
ATOM     15  C1  <0> A   1      -1.255   1.302  -0.653  0.00  0.00    +0.065 C 
ATOM     16  C2  <0> A   1      -0.554  -0.028  -0.370  0.00  0.00    +0.210 C 
ENDBRANCH  14  16
ENDBRANCH  12  14
ENDBRANCH  10  12
BRANCH  10  17
ATOM     17  C12 <0> A   1       0.656  -1.898  -4.036  0.00  0.00    +0.244 C 
ATOM     18  N2  <0> A   1       0.455  -1.423  -5.049  0.00  0.00    -0.385 NA
ENDBRANCH  10  17
ENDBRANCH   1  11
BRANCH   5  19
ATOM     19  O3  <0> A   1       3.792  -3.267  -6.975  0.00  0.00    -0.469 OA
ATOM     20  H9  <0> A   1       3.166  -2.985  -7.656  0.00  0.00    +0.401 HD
ENDBRANCH   5  19
BRANCH   4  21
ATOM     21  O4  <0> A   1       3.767  -6.000  -7.291  0.00  0.00    -0.457 OA
ATOM     22  H10 <0> A   1       3.137  -6.108  -8.017  0.00  0.00    +0.409 HD
ENDBRANCH   4  21
TORSDOF 8
ENDMDL
MODEL       70
REMARK  Name = CHEMBL166486
REMARK  5 active torsions:
REMARK  status: ('A' for Active; 'I' for Inactive)
REMARK    1  A    between atoms: C2_2  and  C7_12
REMARK    2  A    between atoms: C4_4  and  O4_11
REMARK    3  A    between atoms: C6_6  and  N1_7
REMARK    4  A    between atoms: C8_13  and  C9_14
REMARK    5  A    between atoms: C8_13  and  C10_16
REMARK                            x       y       z     vdW  Elec       q    Type
REMARK                         _______ _______ _______ _____ _____    ______ ____
ROOT
ATOM      1  C1  <0> A   1       0.013   1.357  -0.054  0.00  0.00    +0.189 A 
ATOM      2  C2  <0> A   1       1.205   2.089   0.038  0.00  0.00    -0.235 A 
ATOM      3  C3  <0> A   1       2.429   1.415   0.157  0.00  0.00    +0.080 A 
ATOM      4  C4  <0> A   1       2.452   0.036   0.182  0.00  0.00    -0.009 A 
ATOM      5  C5  <0> A   1       1.261  -0.685   0.090  0.00  0.00    +0.308 A 
ATOM      6  C6  <0> A   1       0.048  -0.018  -0.028  0.00  0.00    -0.196 A 
ATOM      7  O3  <0> A   1       1.288  -2.042   0.115  0.00  0.00    -0.596 OA
ENDROOT
BRANCH   6   8
ATOM      8  N1  <0> A   1      -1.212  -0.790  -0.124  0.00  0.00    +0.068 N 
ATOM      9  O1  <0> A   1      -2.269  -0.212  -0.227  0.00  0.00    -0.244 OA
ATOM     10  O2  <0> A   1      -1.183  -1.999  -0.101  0.00  0.00    -0.153 OA
ENDBRANCH   6   8
BRANCH   4  11
ATOM     11  O4  <0> A   1       3.637  -0.622   0.297  0.00  0.00    -0.477 OA
ATOM     12  H3  <0> A   1       3.903  -0.797   1.210  0.00  0.00    +0.372 HD
ENDBRANCH   4  11
BRANCH   2  13
ATOM     13  C7  <0> A   1       1.173   3.554   0.009  0.00  0.00    +0.273 C 
ATOM     14  C8  <0> A   1       2.241   4.256  -0.501  0.00  0.00    -0.081 C 
BRANCH  14  15
ATOM     15  C9  <0> A   1       3.319   3.559  -1.136  0.00  0.00    +0.267 C 
ATOM     16  N2  <0> A   1       4.174   3.006  -1.639  0.00  0.00    -0.415 NA
ENDBRANCH  14  15
BRANCH  14  17
ATOM     17  C10 <0> A   1       2.274   5.684  -0.397  0.00  0.00    +0.277 C 
ATOM     18  N3  <0> A   1       2.301   6.817  -0.315  0.00  0.00    -0.429 NA
ENDBRANCH  14  17
ENDBRANCH   2  13
TORSDOF 5
ENDMDL
MODEL       71
REMARK  Name = CHEMBL166486
REMARK  6 active torsions:
REMARK  status: ('A' for Active; 'I' for Inactive)
REMARK    1  A    between atoms: C2_2  and  C7_12
REMARK    2  A    between atoms: C4_4  and  O4_11
REMARK    3  A    between atoms: C5_5  and  O3_10
REMARK    4  A    between atoms: C6_6  and  N1_7
REMARK    5  A    between atoms: C8_13  and  C9_14
REMARK    6  A    between atoms: C8_13  and  C10_16
REMARK                            x       y       z     vdW  Elec       q    Type
REMARK                         _______ _______ _______ _____ _____    ______ ____
ROOT
ATOM      1  C1  <0> A   1       0.013   1.357  -0.054  0.00  0.00    +0.162 A 
ATOM      2  C2  <0> A   1       1.205   2.089   0.038  0.00  0.00    -0.089 A 
ATOM      3  C3  <0> A   1       2.429   1.415   0.157  0.00  0.00    +0.094 A 
ATOM      4  C4  <0> A   1       2.452   0.036   0.182  0.00  0.00    +0.090 A 
ATOM      5  C5  <0> A   1       1.261  -0.685   0.090  0.00  0.00    +0.176 A 
ATOM      6  C6  <0> A   1       0.048  -0.018  -0.028  0.00  0.00    -0.069 A 
ENDROOT
BRANCH   6   7
ATOM      7  N1  <0> A   1      -1.212  -0.790  -0.124  0.00  0.00    +0.034 N 
ATOM      8  O1  <0> A   1      -2.269  -0.212  -0.227  0.00  0.00    -0.154 OA
ATOM      9  O2  <0> A   1      -1.183  -1.999  -0.101  0.00  0.00    -0.128 OA
ENDBRANCH   6   7
BRANCH   5  10
ATOM     10  O3  <0> A   1       1.288  -2.042   0.115  0.00  0.00    -0.458 OA
ATOM     11  H3  <0> A   1       1.218  -2.421   1.002  0.00  0.00    +0.409 HD
ENDBRANCH   5  10
BRANCH   4  12
ATOM     12  O4  <0> A   1       3.637  -0.622   0.297  0.00  0.00    -0.468 OA
ATOM     13  H4  <0> A   1       3.903  -0.797   1.210  0.00  0.00    +0.400 HD
ENDBRANCH   4  12
BRANCH   2  14
ATOM     14  C7  <0> A   1       1.173   3.554   0.009  0.00  0.00    +0.231 C 
ATOM     15  C8  <0> A   1       2.241   4.256  -0.501  0.00  0.00    +0.024 C 
BRANCH  15  16
ATOM     16  C9  <0> A   1       2.274   5.684  -0.397  0.00  0.00    +0.249 C 
ATOM     17  N2  <0> A   1       2.301   6.817  -0.315  0.00  0.00    -0.371 NA
ENDBRANCH  15  16
BRANCH  15  18
ATOM     18  C10 <0> A   1       3.319   3.559  -1.136  0.00  0.00    +0.238 C 
ATOM     19  N3  <0> A   1       4.174   3.006  -1.639  0.00  0.00    -0.369 NA
ENDBRANCH  15  18
ENDBRANCH   2  14
TORSDOF 6
ENDMDL
MODEL       72
REMARK  Name = CHEMBL353188
REMARK  8 active torsions:
REMARK  status: ('A' for Active; 'I' for Inactive)
REMARK    1  A    between atoms: C2_2  and  C7_12
REMARK    2  A    between atoms: C4_4  and  O4_11
REMARK    3  A    between atoms: C5_5  and  O3_10
REMARK    4  A    between atoms: C6_6  and  N1_7
REMARK    5  A    between atoms: C7_12  and  C8_13
REMARK    6  A    between atoms: C8_13  and  C9_14
REMARK    7  A    between atoms: C9_14  and  C10_15
REMARK    8  A    between atoms: C10_15  and  C11_16
REMARK                            x       y       z     vdW  Elec       q    Type
REMARK                         _______ _______ _______ _____ _____    ______ ____
ROOT
ATOM      1  C1  <0> A   1      -0.017   1.378   0.010  0.00  0.00    +0.112 A 
ATOM      2  C2  <0> A   1       1.169   2.089   0.002  0.00  0.00    -0.059 A 
ATOM      3  C3  <0> A   1       2.379   1.420  -0.013  0.00  0.00    +0.077 A 
ATOM      4  C4  <0> A   1       2.405   0.035  -0.021  0.00  0.00    +0.085 A 
ATOM      5  C5  <0> A   1       1.211  -0.680  -0.013  0.00  0.00    +0.138 A 
ATOM      6  C6  <0> A   1       0.002  -0.004   0.002  0.00  0.00    -0.063 A 
ENDROOT
BRANCH   6   7
ATOM      7  N1  <0> A   1      -1.270  -0.761   0.011  0.00  0.00    +0.038 N 
ATOM      8  O1  <0> A   1      -2.325  -0.171   0.024  0.00  0.00    -0.164 OA
ATOM      9  O2  <0> A   1      -1.253  -1.970   0.004  0.00  0.00    -0.142 OA
ENDBRANCH   6   7
BRANCH   5  10
ATOM     10  O3  <0> A   1       1.232  -2.040  -0.021  0.00  0.00    -0.464 OA
ATOM     11  H3  <0> A   1       1.246  -2.438   0.860  0.00  0.00    +0.399 HD
ENDBRANCH   5  10
BRANCH   4  12
ATOM     12  O4  <0> A   1       3.594  -0.625  -0.037  0.00  0.00    -0.475 OA
ATOM     13  H4  <0> A   1       3.947  -0.820   0.842  0.00  0.00    +0.395 HD
ENDBRANCH   4  12
BRANCH   2  14
ATOM     14  C7  <0> A   1       1.143   3.595   0.011  0.00  0.00    +0.085 C 
BRANCH  14  15
ATOM     15  C8  <0> A   1       1.148   4.098   1.456  0.00  0.00    +0.003 C 
BRANCH  15  16
ATOM     16  C9  <0> A   1       1.121   5.627   1.464  0.00  0.00    +0.029 C 
BRANCH  16  17
ATOM     17  C10 <0> A   1       1.126   6.130   2.909  0.00  0.00    -0.074 C 
BRANCH  17  18
ATOM     18  C11 <0> A   1       1.100   7.636   2.918  0.00  0.00    +0.487 C 
ATOM     19  O5  <0> A   1       1.079   8.252   1.865  0.00  0.00    -0.699 OA
ATOM     20  O6  <0> A   1       1.099   8.240   3.977  0.00  0.00    -0.708 OA
ENDBRANCH  17  18
ENDBRANCH  16  17
ENDBRANCH  15  16
ENDBRANCH  14  15
ENDBRANCH   2  14
TORSDOF 8
ENDMDL
MODEL       73
REMARK  Name = CHEMBL167055
REMARK  8 active torsions:
REMARK  status: ('A' for Active; 'I' for Inactive)
REMARK    1  A    between atoms: C1_1  and  C2_2
REMARK    2  A    between atoms: C2_2  and  C3_4
REMARK    3  A    between atoms: C3_4  and  C11_17
REMARK    4  A    between atoms: C4_5  and  C5_6
REMARK    5  A    between atoms: C7_8  and  N1_14
REMARK    6  A    between atoms: C8_9  and  O3_13
REMARK    7  A    between atoms: C9_10  and  O2_12
REMARK    8  A    between atoms: C11_17  and  C12_19
REMARK                            x       y       z     vdW  Elec       q    Type
REMARK                         _______ _______ _______ _____ _____    ______ ____
ROOT
ATOM      1  C5  <0> A   1       0.036  -2.497  -0.449  0.00  0.00    -0.079 A 
ATOM      2  C6  <0> A   1       0.119  -3.869  -0.737  0.00  0.00    +0.119 A 
ATOM      3  C7  <0> A   1       1.335  -4.447  -0.968  0.00  0.00    -0.060 A 
ATOM      4  C8  <0> A   1       2.496  -3.683  -0.919  0.00  0.00    +0.169 A 
ATOM      5  C9  <0> A   1       2.429  -2.318  -0.633  0.00  0.00    +0.088 A 
ATOM      6  C10 <0> A   1       1.207  -1.722  -0.405  0.00  0.00    +0.115 A 
ENDROOT
BRANCH   3   7
ATOM      7  N1  <0> A   1       1.417  -5.893  -1.271  0.00  0.00    +0.035 N 
ATOM      8  O4  <0> A   1       0.409  -6.560  -1.313  0.00  0.00    -0.159 OA
ATOM      9  O5  <0> A   1       2.491  -6.408  -1.476  0.00  0.00    -0.125 OA
ENDBRANCH   3   7
BRANCH   1  11
ATOM     10  C3  <0> A   1      -2.230  -2.616   0.420  0.00  0.00    -0.260 C 
ATOM     11  C4  <0> A   1      -1.225  -1.895  -0.210  0.00  0.00    +0.190 C 
BRANCH  10  13
ATOM     12  C1  <0> A   1      -2.580  -5.165   0.378  0.00  0.00    +0.086 C 
ATOM     13  C2  <0> A   1      -1.942  -3.939   0.978  0.00  0.00    +0.390 C 
ATOM     14  O1  <0> A   1      -1.189  -4.048   1.923  0.00  0.00    -0.430 OA
ENDBRANCH  10  13
BRANCH  10  15
ATOM     15  C11 <0> A   1      -3.577  -2.055   0.527  0.00  0.00    +0.404 C 
ATOM     16  O6  <0> A   1      -3.807  -0.944   0.098  0.00  0.00    -0.448 OA
ATOM     17  C12 <0> A   1      -4.678  -2.857   1.171  0.00  0.00    +0.082 C 
ENDBRANCH  10  15
ENDBRANCH   1  11
BRANCH   5  18
ATOM     18  O2  <0> A   1       3.568  -1.576  -0.586  0.00  0.00    -0.469 OA
ATOM     19  H7  <0> A   1       3.818  -1.185  -1.435  0.00  0.00    +0.400 HD
ENDBRANCH   5  18
BRANCH   4  20
ATOM     20  O3  <0> A   1       3.699  -4.268  -1.149  0.00  0.00    -0.457 OA
ATOM     21  H8  <0> A   1       3.968  -4.261  -2.078  0.00  0.00    +0.407 HD
ENDBRANCH   4  20
TORSDOF 6
ENDMDL
MODEL       74
REMARK  Name = CHEMBL167055
REMARK  7 active torsions:
REMARK  status: ('A' for Active; 'I' for Inactive)
REMARK    1  A    between atoms: C1_1  and  C2_2
REMARK    2  A    between atoms: C2_2  and  C3_4
REMARK    3  A    between atoms: C3_4  and  C11_17
REMARK    4  A    between atoms: C4_5  and  C5_6
REMARK    5  A    between atoms: C7_8  and  N1_14
REMARK    6  A    between atoms: C9_10  and  O2_12
REMARK    7  A    between atoms: C11_17  and  C12_19
REMARK                            x       y       z     vdW  Elec       q    Type
REMARK                         _______ _______ _______ _____ _____    ______ ____
ROOT
ATOM      1  C5  <0> A   1      -0.225  -2.944   0.039  0.00  0.00    -0.234 A 
ATOM      2  C6  <0> A   1      -1.001  -2.416   1.083  0.00  0.00    +0.163 A 
ATOM      3  C7  <0> A   1      -1.117  -3.097   2.261  0.00  0.00    -0.190 A 
ATOM      4  C8  <0> A   1      -0.470  -4.316   2.434  0.00  0.00    +0.309 A 
ATOM      5  C9  <0> A   1       0.304  -4.854   1.404  0.00  0.00    -0.017 A 
ATOM      6  C10 <0> A   1       0.425  -4.178   0.208  0.00  0.00    +0.095 A 
ATOM      7  O3  <0> A   1      -0.592  -4.985   3.608  0.00  0.00    -0.598 OA
ENDROOT
BRANCH   3   8
ATOM      8  N1  <0> A   1      -1.936  -2.535   3.359  0.00  0.00    +0.068 N 
ATOM      9  O4  <0> A   1      -2.499  -1.476   3.211  0.00  0.00    -0.246 OA
ATOM     10  O5  <0> A   1      -2.041  -3.136   4.402  0.00  0.00    -0.151 OA
ENDBRANCH   3   8
BRANCH   1  12
ATOM     11  C3  <0> A   1      -0.083  -0.851  -1.186  0.00  0.00    -0.352 C 
ATOM     12  C4  <0> A   1      -0.104  -2.238  -1.185  0.00  0.00    +0.244 C 
BRANCH  11  14
ATOM     13  C1  <0> A   1      -1.192   0.743   0.502  0.00  0.00    +0.064 C 
ATOM     14  C2  <0> A   1      -0.029  -0.118   0.080  0.00  0.00    +0.409 C 
ATOM     15  O1  <0> A   1       0.951  -0.205   0.790  0.00  0.00    -0.447 OA
ENDBRANCH  11  14
BRANCH  11  16
ATOM     16  C11 <0> A   1      -0.115  -0.119  -2.454  0.00  0.00    +0.410 C 
ATOM     17  O6  <0> A   1      -0.080  -0.725  -3.505  0.00  0.00    -0.481 OA
ATOM     18  C12 <0> A   1      -0.190   1.386  -2.453  0.00  0.00    +0.060 C 
ENDBRANCH  11  16
ENDBRANCH   1  12
BRANCH   5  19
ATOM     19  O2  <0> A   1       0.935  -6.046   1.579  0.00  0.00    -0.478 OA
ATOM     20  H7  <0> A   1       0.408  -6.812   1.315  0.00  0.00    +0.371 HD
ENDBRANCH   5  19
TORSDOF 5
ENDMDL
MODEL       75
REMARK  Name = CHEMBL168276
REMARK  3 active torsions:
REMARK  status: ('A' for Active; 'I' for Inactive)
REMARK    1  A    between atoms: C2_2  and  N2_12
REMARK    2  A    between atoms: C4_4  and  O4_11
REMARK    3  A    between atoms: C6_6  and  N1_7
REMARK                            x       y       z     vdW  Elec       q    Type
REMARK                         _______ _______ _______ _____ _____    ______ ____
ROOT
ATOM      1  C1  <0> A   1      -0.017   1.378   0.010  0.00  0.00    +0.219 A 
ATOM      2  C2  <0> A   1       1.169   2.089   0.002  0.00  0.00    -0.160 A 
ATOM      3  C3  <0> A   1       2.379   1.420  -0.013  0.00  0.00    +0.115 A 
ATOM      4  C4  <0> A   1       2.405   0.035  -0.021  0.00  0.00    +0.004 A 
ATOM      5  C5  <0> A   1       1.211  -0.680  -0.013  0.00  0.00    +0.310 A 
ATOM      6  C6  <0> A   1       0.002  -0.004   0.002  0.00  0.00    -0.186 A 
ATOM      7  O3  <0> A   1       1.232  -2.040  -0.021  0.00  0.00    -0.583 OA
ENDROOT
BRANCH   6   8
ATOM      8  N1  <0> A   1      -1.270  -0.762   0.011  0.00  0.00    +0.067 N 
ATOM      9  O1  <0> A   1      -2.325  -0.171   0.024  0.00  0.00    -0.231 OA
ATOM     10  O2  <0> A   1      -1.253  -1.970   0.004  0.00  0.00    -0.140 OA
ENDBRANCH   6   8
BRANCH   2  11
ATOM     11  N2  <0> A   1       1.143   3.569   0.010  0.00  0.00    +0.068 N 
ATOM     12  O5  <0> A   1       0.086   4.155   0.024  0.00  0.00    -0.196 OA
ATOM     13  O6  <0> A   1       2.180   4.191   0.004  0.00  0.00    -0.194 OA
ENDBRANCH   2  11
BRANCH   4  14
ATOM     14  O4  <0> A   1       3.594  -0.625  -0.037  0.00  0.00    -0.471 OA
ATOM     15  H3  <0> A   1       3.947  -0.820   0.842  0.00  0.00    +0.378 HD
ENDBRANCH   4  14
TORSDOF 3
ENDMDL
MODEL       76
REMARK  Name = CHEMBL64275
REMARK  7 active torsions:
REMARK  status: ('A' for Active; 'I' for Inactive)
REMARK    1  A    between atoms: C1_1  and  C2_2
REMARK    2  A    between atoms: C2_2  and  C3_3
REMARK    3  A    between atoms: C3_3  and  N1_4
REMARK    4  A    between atoms: C4_5  and  C5_7
REMARK    5  A    between atoms: C7_9  and  O4_15
REMARK    6  A    between atoms: C8_10  and  O3_14
REMARK    7  A    between atoms: C9_11  and  O2_13
REMARK                            x       y       z     vdW  Elec       q    Type
REMARK                         _______ _______ _______ _____ _____    ______ ____
ROOT
ATOM      1  C5  <0> A   1       1.341  -4.099  -2.293  0.00  0.00    -0.112 A 
ATOM      2  C6  <0> A   1       0.751  -4.812  -1.247  0.00  0.00    +0.034 A 
ATOM      3  C7  <0> A   1       0.771  -6.194  -1.257  0.00  0.00    +0.091 A 
ATOM      4  C8  <0> A   1       1.378  -6.875  -2.308  0.00  0.00    +0.083 A 
ATOM      5  C9  <0> A   1       1.968  -6.167  -3.352  0.00  0.00    +0.092 A 
ATOM      6  C10 <0> A   1       1.945  -4.785  -3.350  0.00  0.00    +0.074 A 
ENDROOT
BRANCH   1   8
ATOM      7  N1  <0> A   1       0.738  -1.962  -1.265  0.00  0.00    -0.726 N 
ATOM      8  C4  <0> A   1       1.321  -2.623  -2.285  0.00  0.00    +0.560 C 
ATOM      9  O1  <0> A   1       1.831  -2.003  -3.198  0.00  0.00    -0.529 OA
ATOM     10  H8  <0> A   1       0.332  -2.457  -0.536  0.00  0.00    +0.401 HD
BRANCH   7  11
ATOM     11  C3  <0> A   1       0.718  -0.497  -1.257  0.00  0.00    +0.259 C 
BRANCH  11  13
ATOM     12  C1  <0> A   1      -0.019   1.526   0.010  0.00  0.00    +0.029 C 
ATOM     13  C2  <0> A   1       0.002  -0.004   0.002  0.00  0.00    +0.003 C 
ENDBRANCH  11  13
ENDBRANCH   7  11
ENDBRANCH   1   8
BRANCH   5  14
ATOM     14  O2  <0> A   1       2.561  -6.835  -4.377  0.00  0.00    -0.480 OA
ATOM     15  H11 <0> A   1       1.965  -7.036  -5.112  0.00  0.00    +0.393 HD
ENDBRANCH   5  14
BRANCH   4  16
ATOM     16  O3  <0> A   1       1.397  -8.234  -2.316  0.00  0.00    -0.473 OA
ATOM     17  H12 <0> A   1       0.635  -8.636  -2.756  0.00  0.00    +0.390 HD
ENDBRANCH   4  16
BRANCH   3  18
ATOM     18  O4  <0> A   1       0.196  -6.890  -0.239  0.00  0.00    -0.481 OA
ATOM     19  H13 <0> A   1      -0.737  -7.098  -0.383  0.00  0.00    +0.392 HD
ENDBRANCH   3  18
TORSDOF 6
ENDMDL
MODEL       77
REMARK  Name = CHEMBL355017
REMARK  3 active torsions:
REMARK  status: ('A' for Active; 'I' for Inactive)
REMARK    1  A    between atoms: C4_4  and  O4_11
REMARK    2  A    between atoms: C5_5  and  O3_10
REMARK    3  A    between atoms: C6_6  and  N1_7
REMARK                            x       y       z     vdW  Elec       q    Type
REMARK                         _______ _______ _______ _____ _____    ______ ____
ROOT
ATOM      1  C1  <0> A   1      -0.017   1.378   0.010  0.00  0.00    +0.129 A 
ATOM      2  C2  <0> A   1       1.170   2.089   0.002  0.00  0.00    -0.034 A 
ATOM      3  C3  <0> A   1       2.381   1.419  -0.013  0.00  0.00    +0.094 A 
ATOM      4  C4  <0> A   1       2.405   0.034  -0.021  0.00  0.00    +0.098 A 
ATOM      5  C5  <0> A   1       1.211  -0.681  -0.013  0.00  0.00    +0.158 A 
ATOM      6  C6  <0> A   1       0.002  -0.004   0.002  0.00  0.00    -0.056 A 
ATOM      7 Cl1  <0> A   1       1.141   3.825   0.012  0.00  0.00    -0.023 Cl
ENDROOT
BRANCH   6   8
ATOM      8  N1  <0> A   1      -1.270  -0.761   0.010  0.00  0.00    +0.035 N 
ATOM      9  O1  <0> A   1      -2.325  -0.171   0.023  0.00  0.00    -0.155 OA
ATOM     10  O2  <0> A   1      -1.253  -1.970   0.003  0.00  0.00    -0.126 OA
ENDBRANCH   6   8
BRANCH   5  11
ATOM     11  O3  <0> A   1       1.231  -2.041  -0.021  0.00  0.00    -0.458 OA
ATOM     12  H3  <0> A   1       1.245  -2.439   0.860  0.00  0.00    +0.407 HD
ENDBRANCH   5  11
BRANCH   4  13
ATOM     13  O4  <0> A   1       3.594  -0.627  -0.037  0.00  0.00    -0.468 OA
ATOM     14  H4  <0> A   1       3.947  -0.822   0.842  0.00  0.00    +0.401 HD
ENDBRANCH   4  13
TORSDOF 3
ENDMDL
MODEL       78
REMARK  Name = CHEMBL355017
REMARK  2 active torsions:
REMARK  status: ('A' for Active; 'I' for Inactive)
REMARK    1  A    between atoms: C4_4  and  O4_11
REMARK    2  A    between atoms: C6_6  and  N1_7
REMARK                            x       y       z     vdW  Elec       q    Type
REMARK                         _______ _______ _______ _____ _____    ______ ____
ROOT
ATOM      1  C1  <0> A   1      -0.017   1.378   0.010  0.00  0.00    +0.137 A 
ATOM      2  C2  <0> A   1       1.170   2.089   0.002  0.00  0.00    -0.147 A 
ATOM      3  C3  <0> A   1       2.381   1.419  -0.013  0.00  0.00    +0.069 A 
ATOM      4  C4  <0> A   1       2.405   0.034  -0.021  0.00  0.00    -0.008 A 
ATOM      5  C5  <0> A   1       1.211  -0.681  -0.013  0.00  0.00    +0.293 A 
ATOM      6  C6  <0> A   1       0.002  -0.004   0.002  0.00  0.00    -0.193 A 
ATOM      7  O3  <0> A   1       1.231  -2.041  -0.021  0.00  0.00    -0.619 OA
ATOM      8 Cl1  <0> A   1       1.141   3.825   0.012  0.00  0.00    -0.091 Cl
ENDROOT
BRANCH   6   9
ATOM      9  N1  <0> A   1      -1.270  -0.761   0.010  0.00  0.00    +0.073 N 
ATOM     10  O1  <0> A   1      -2.325  -0.171   0.023  0.00  0.00    -0.253 OA
ATOM     11  O2  <0> A   1      -1.253  -1.970   0.003  0.00  0.00    -0.156 OA
ENDBRANCH   6   9
BRANCH   4  12
ATOM     12  O4  <0> A   1       3.594  -0.627  -0.037  0.00  0.00    -0.477 OA
ATOM     13  H3  <0> A   1       3.947  -0.822   0.842  0.00  0.00    +0.371 HD
ENDBRANCH   4  12
TORSDOF 2
ENDMDL
MODEL       79
REMARK  Name = CHEMBL1089504
REMARK  5 active torsions:
REMARK  status: ('A' for Active; 'I' for Inactive)
REMARK    1  A    between atoms: C1_1  and  O1_2
REMARK    2  A    between atoms: O1_2  and  C2_3
REMARK    3  A    between atoms: C2_3  and  C3_5
REMARK    4  A    between atoms: C7_9  and  O6_18
REMARK    5  A    between atoms: C9_11  and  N1_14
REMARK                            x       y       z     vdW  Elec       q    Type
REMARK                         _______ _______ _______ _____ _____    ______ ____
ROOT
ATOM      1  C3  <0> A   1       0.659  -2.064  -1.123  0.00  0.00    -0.265 C 
ATOM      2  C4  <0> A   1       1.220  -2.844  -2.090  0.00  0.00    +0.098 C 
ATOM      3  C5  <0> A   1       1.169  -4.245  -1.976  0.00  0.00    -0.216 A 
ATOM      4  C6  <0> A   1       1.690  -5.216  -2.873  0.00  0.00    +0.109 A 
ATOM      5  C7  <0> A   1       1.556  -6.544  -2.615  0.00  0.00    +0.018 A 
ATOM      6  C8  <0> A   1       0.904  -7.003  -1.466  0.00  0.00    +0.331 A 
ATOM      7  C9  <0> A   1       0.383  -6.086  -0.570  0.00  0.00    -0.165 A 
ATOM      8  C10 <0> A   1       0.514  -4.737  -0.823  0.00  0.00    +0.012 A 
ATOM      9  S1  <0> A   1       0.019  -3.263   0.034  0.00  0.00    +0.113 S 
ATOM     10  O5  <0> A   1       0.782  -8.336  -1.232  0.00  0.00    -0.622 OA
ATOM     11 Cl1  <0> A   1       1.994  -2.109  -3.458  0.00  0.00    -0.035 Cl
ENDROOT
BRANCH   7  12
ATOM     12  N1  <0> A   1      -0.312  -6.550   0.652  0.00  0.00    +0.062 N 
ATOM     13  O3  <0> A   1       0.313  -6.731   1.671  0.00  0.00    -0.161 OA
ATOM     14  O4  <0> A   1      -1.504  -6.748   0.632  0.00  0.00    -0.160 OA
ENDBRANCH   7  12
BRANCH   1  15
ATOM     15  C2  <0> A   1       0.601  -0.603  -1.048  0.00  0.00    +0.558 C 
ATOM     16  O2  <0> A   1       1.094   0.071  -1.932  0.00  0.00    -0.490 OA
BRANCH  15  18
ATOM     17  C1  <0> A   1      -0.017   1.425   0.010  0.00  0.00    +0.261 C 
ATOM     18  O1  <0> A   1       0.002  -0.004   0.002  0.00  0.00    -0.348 OA
ENDBRANCH  15  18
ENDBRANCH   1  15
BRANCH   5  19
ATOM     19  O6  <0> A   1       2.067  -7.447  -3.495  0.00  0.00    -0.478 OA
ATOM     20  H5  <0> A   1       2.982  -7.701  -3.311  0.00  0.00    +0.378 HD
ENDBRANCH   5  19
TORSDOF 4
ENDMDL
MODEL       80
REMARK  Name = CHEMBL1089504
REMARK  6 active torsions:
REMARK  status: ('A' for Active; 'I' for Inactive)
REMARK    1  A    between atoms: C1_1  and  O1_2
REMARK    2  A    between atoms: O1_2  and  C2_3
REMARK    3  A    between atoms: C2_3  and  C3_5
REMARK    4  A    between atoms: C7_9  and  O6_18
REMARK    5  A    between atoms: C8_10  and  O5_17
REMARK    6  A    between atoms: C9_11  and  N1_14
REMARK                            x       y       z     vdW  Elec       q    Type
REMARK                         _______ _______ _______ _____ _____    ______ ____
ROOT
ATOM      1  C3  <0> A   1       0.659  -2.064  -1.123  0.00  0.00    -0.174 C 
ATOM      2  C4  <0> A   1       1.220  -2.844  -2.090  0.00  0.00    +0.027 C 
ATOM      3  C5  <0> A   1       1.169  -4.245  -1.976  0.00  0.00    -0.083 A 
ATOM      4  C6  <0> A   1       1.690  -5.216  -2.873  0.00  0.00    +0.135 A 
ATOM      5  C7  <0> A   1       1.556  -6.544  -2.615  0.00  0.00    +0.096 A 
ATOM      6  C8  <0> A   1       0.904  -7.003  -1.466  0.00  0.00    +0.192 A 
ATOM      7  C9  <0> A   1       0.383  -6.086  -0.570  0.00  0.00    -0.013 A 
ATOM      8  C10 <0> A   1       0.514  -4.737  -0.823  0.00  0.00    -0.090 A 
ATOM      9  S1  <0> A   1       0.019  -3.263   0.034  0.00  0.00    +0.214 S 
ATOM     10 Cl1  <0> A   1       1.994  -2.109  -3.458  0.00  0.00    +0.004 Cl
ENDROOT
BRANCH   7  11
ATOM     11  N1  <0> A   1      -0.312  -6.550   0.652  0.00  0.00    +0.023 N 
ATOM     12  O3  <0> A   1       0.313  -6.731   1.671  0.00  0.00    -0.125 OA
ATOM     13  O4  <0> A   1      -1.504  -6.748   0.632  0.00  0.00    -0.110 OA
ENDBRANCH   7  11
BRANCH   1  14
ATOM     14  C2  <0> A   1       0.601  -0.603  -1.048  0.00  0.00    +0.546 C 
ATOM     15  O2  <0> A   1       1.094   0.071  -1.932  0.00  0.00    -0.459 OA
BRANCH  14  17
ATOM     16  C1  <0> A   1      -0.017   1.425   0.010  0.00  0.00    +0.282 C 
ATOM     17  O1  <0> A   1       0.002  -0.004   0.002  0.00  0.00    -0.343 OA
ENDBRANCH  14  17
ENDBRANCH   1  14
BRANCH   6  18
ATOM     18  O5  <0> A   1       0.782  -8.336  -1.232  0.00  0.00    -0.467 OA
ATOM     19  H5  <0> A   1       1.514  -8.715  -0.726  0.00  0.00    +0.412 HD
ENDBRANCH   6  18
BRANCH   5  20
ATOM     20  O6  <0> A   1       2.067  -7.447  -3.495  0.00  0.00    -0.469 OA
ATOM     21  H6  <0> A   1       2.982  -7.701  -3.311  0.00  0.00    +0.401 HD
ENDBRANCH   5  20
TORSDOF 5
ENDMDL
MODEL       81
REMARK  Name = CHEMBL953
REMARK  10 active torsions:
REMARK  status: ('A' for Active; 'I' for Inactive)
REMARK    1  A    between atoms: C1_1  and  C2_2
REMARK    2  A    between atoms: C2_2  and  N1_3
REMARK    3  A    between atoms: N1_3  and  C3_4
REMARK    4  A    between atoms: C3_4  and  C4_5
REMARK    5  A    between atoms: C5_6  and  C6_8
REMARK    6  A    between atoms: C6_8  and  C14_21
REMARK    7  A    between atoms: C7_9  and  C8_10
REMARK    8  A    between atoms: C10_12  and  N2_18
REMARK    9  A    between atoms: C11_13  and  O3_17
REMARK   10  A    between atoms: C12_14  and  O2_16
REMARK                            x       y       z     vdW  Elec       q    Type
REMARK                         _______ _______ _______ _____ _____    ______ ____
ROOT
ATOM      1  C8  <0> A   1      -4.414  -2.341   3.111  0.00  0.00    -0.089 A 
ATOM      2  C9  <0> A   1      -5.116  -1.953   4.261  0.00  0.00    +0.159 A 
ATOM      3  C10 <0> A   1      -6.320  -2.547   4.565  0.00  0.00    -0.068 A 
ATOM      4  C11 <0> A   1      -6.842  -3.531   3.734  0.00  0.00    +0.174 A 
ATOM      5  C12 <0> A   1      -6.151  -3.923   2.588  0.00  0.00    +0.090 A 
ATOM      6  C13 <0> A   1      -4.946  -3.330   2.271  0.00  0.00    +0.094 A 
ENDROOT
BRANCH   3   7
ATOM      7  N2  <0> A   1      -7.059  -2.137   5.779  0.00  0.00    +0.034 N 
ATOM      8  O4  <0> A   1      -6.606  -1.281   6.503  0.00  0.00    -0.154 OA
ATOM      9  O5  <0> A   1      -8.117  -2.657   6.048  0.00  0.00    -0.128 OA
ENDBRANCH   3   7
BRANCH   1  11
ATOM     10  C6  <0> A   1      -2.754  -1.562   1.468  0.00  0.00    -0.114 C 
ATOM     11  C7  <0> A   1      -3.133  -1.711   2.785  0.00  0.00    +0.242 C 
BRANCH  10  13
ATOM     12  N1  <0> A   1      -1.073  -0.814  -0.138  0.00  0.00    -0.604 N 
ATOM     13  C5  <0> A   1      -1.402  -1.081   1.142  0.00  0.00    +0.572 C 
ATOM     14  O1  <0> A   1      -0.582  -0.925   2.026  0.00  0.00    -0.518 OA
BRANCH  12  16
ATOM     15  C1  <0> A   1       0.473   1.065  -0.387  0.00  0.00    +0.019 C 
ATOM     16  C2  <0> A   1       0.305  -0.453  -0.479  0.00  0.00    +0.280 C 
ENDBRANCH  12  16
BRANCH  12  17
ATOM     17  C3  <0> A   1      -2.093  -0.883  -1.187  0.00  0.00    +0.261 C 
ATOM     18  C4  <0> A   1      -2.192  -2.318  -1.708  0.00  0.00    +0.019 C 
ENDBRANCH  12  17
ENDBRANCH  10  13
BRANCH  10  19
ATOM     19  C14 <0> A   1      -3.676  -1.874   0.418  0.00  0.00    +0.250 C 
ATOM     20  N3  <0> A   1      -4.407  -2.123  -0.415  0.00  0.00    -0.399 NA
ENDBRANCH  10  19
ENDBRANCH   1  11
BRANCH   5  21
ATOM     21  O2  <0> A   1      -6.666  -4.887   1.779  0.00  0.00    -0.469 OA
ATOM     22  H14 <0> A   1      -7.239  -4.548   1.078  0.00  0.00    +0.400 HD
ENDBRANCH   5  21
BRANCH   4  23
ATOM     23  O3  <0> A   1      -8.030  -4.113   4.040  0.00  0.00    -0.458 OA
ATOM     24  H15 <0> A   1      -8.798  -3.662   3.662  0.00  0.00    +0.408 HD
ENDBRANCH   4  23
TORSDOF 8
ENDMDL
MODEL       82
REMARK  Name = CHEMBL953
REMARK  9 active torsions:
REMARK  status: ('A' for Active; 'I' for Inactive)
REMARK    1  A    between atoms: C1_1  and  C2_2
REMARK    2  A    between atoms: C2_2  and  N1_3
REMARK    3  A    between atoms: N1_3  and  C3_4
REMARK    4  A    between atoms: C3_4  and  C4_5
REMARK    5  A    between atoms: C5_6  and  C6_8
REMARK    6  A    between atoms: C6_8  and  C14_21
REMARK    7  A    between atoms: C7_9  and  C8_10
REMARK    8  A    between atoms: C10_12  and  N2_18
REMARK    9  A    between atoms: C12_14  and  O2_16
REMARK                            x       y       z     vdW  Elec       q    Type
REMARK                         _______ _______ _______ _____ _____    ______ ____
ROOT
ATOM      1  C8  <0> A   1      -0.447  -2.240  -5.422  0.00  0.00    -0.238 A 
ATOM      2  C9  <0> A   1      -1.099  -1.839  -6.598  0.00  0.00    +0.185 A 
ATOM      3  C10 <0> A   1      -0.751  -2.403  -7.803  0.00  0.00    -0.196 A 
ATOM      4  C11 <0> A   1       0.245  -3.371  -7.861  0.00  0.00    +0.308 A 
ATOM      5  C12 <0> A   1       0.898  -3.776  -6.696  0.00  0.00    -0.011 A 
ATOM      6  C13 <0> A   1       0.561  -3.212  -5.483  0.00  0.00    +0.081 A 
ATOM      7  O3  <0> A   1       0.583  -3.924  -9.053  0.00  0.00    -0.599 OA
ENDROOT
BRANCH   3   8
ATOM      8  N2  <0> A   1      -1.439  -1.979  -9.043  0.00  0.00    +0.068 N 
ATOM      9  O4  <0> A   1      -2.306  -1.137  -8.995  0.00  0.00    -0.245 OA
ATOM     10  O5  <0> A   1      -1.135  -2.474 -10.103  0.00  0.00    -0.153 OA
ENDBRANCH   3   8
BRANCH   1  12
ATOM     11  C6  <0> A   1       0.134  -1.497  -3.148  0.00  0.00    -0.204 C 
ATOM     12  C7  <0> A   1      -0.815  -1.641  -4.138  0.00  0.00    +0.284 C 
BRANCH  11  14
ATOM     13  N1  <0> A   1       0.673  -0.786  -0.875  0.00  0.00    -0.613 N 
ATOM     14  C5  <0> A   1      -0.266  -1.050  -1.805  0.00  0.00    +0.584 C 
ATOM     15  O1  <0> A   1      -1.445  -0.917  -1.534  0.00  0.00    -0.539 OA
BRANCH  13  17
ATOM     16  C1  <0> A   1       0.087   1.054   0.626  0.00  0.00    +0.012 C 
ATOM     17  C2  <0> A   1       0.274  -0.459   0.496  0.00  0.00    +0.272 C 
ENDBRANCH  13  17
BRANCH  13  18
ATOM     18  C3  <0> A   1       2.092  -0.826  -1.236  0.00  0.00    +0.260 C 
ATOM     19  C4  <0> A   1       2.615  -2.256  -1.089  0.00  0.00    +0.015 C 
ENDBRANCH  13  18
ENDBRANCH  11  14
BRANCH  11  20
ATOM     20  C14 <0> A   1       1.509  -1.783  -3.428  0.00  0.00    +0.276 C 
ATOM     21  N3  <0> A   1       2.600  -2.010  -3.649  0.00  0.00    -0.440 NA
ENDBRANCH  11  20
ENDBRANCH   1  12
BRANCH   5  22
ATOM     22  O2  <0> A   1       1.871  -4.724  -6.758  0.00  0.00    -0.479 OA
ATOM     23  H14 <0> A   1       2.759  -4.368  -6.897  0.00  0.00    +0.372 HD
ENDBRANCH   5  22
TORSDOF 7
ENDMDL
MODEL       83
REMARK  Name = CHEMBL160038
REMARK  5 active torsions:
REMARK  status: ('A' for Active; 'I' for Inactive)
REMARK    1  A    between atoms: C4_4  and  C7_7
REMARK    2  A    between atoms: C7_7  and  C8_8
REMARK    3  A    between atoms: C8_8  and  C9_10
REMARK    4  A    between atoms: C11_12  and  N1_18
REMARK    5  A    between atoms: C13_14  and  O2_16
REMARK                            x       y       z     vdW  Elec       q    Type
REMARK                         _______ _______ _______ _____ _____    ______ ____
ROOT
ATOM      1  C9  <0> A   1       5.427  -1.666   1.629  0.00  0.00    -0.293 A 
ATOM      2  C10 <0> A   1       5.848  -1.906   2.943  0.00  0.00    +0.197 A 
ATOM      3  C11 <0> A   1       7.032  -2.569   3.176  0.00  0.00    -0.203 A 
ATOM      4  C12 <0> A   1       7.812  -3.000   2.110  0.00  0.00    +0.309 A 
ATOM      5  C13 <0> A   1       7.400  -2.764   0.799  0.00  0.00    -0.025 A 
ATOM      6  C14 <0> A   1       6.212  -2.105   0.556  0.00  0.00    +0.094 A 
ATOM      7  O3  <0> A   1       8.978  -3.653   2.346  0.00  0.00    -0.605 OA
ENDROOT
BRANCH   3   8
ATOM      8  N1  <0> A   1       7.475  -2.822   4.565  0.00  0.00    +0.069 N 
ATOM      9  O4  <0> A   1       6.797  -2.447   5.494  0.00  0.00    -0.247 OA
ATOM     10  O5  <0> A   1       8.514  -3.404   4.772  0.00  0.00    -0.155 OA
ENDBRANCH   3   8
BRANCH   1  11
ATOM     11  C8  <0> A   1       4.164  -0.959   1.377  0.00  0.00    +0.412 C 
ATOM     12  O1  <0> A   1       3.486  -0.579   2.308  0.00  0.00    -0.472 OA
BRANCH  11  13
ATOM     13  C7  <0> A   1       3.711  -0.707  -0.038  0.00  0.00    +0.082 C 
BRANCH  13  17
ATOM     14  C1  <0> A   1      -0.017   1.378   0.010  0.00  0.00    -0.008 A 
ATOM     15  C2  <0> A   1       1.171   2.086   0.002  0.00  0.00    -0.000 A 
ATOM     16  C3  <0> A   1       2.377   1.411  -0.013  0.00  0.00    +0.011 A 
ATOM     17  C4  <0> A   1       2.396   0.029  -0.020  0.00  0.00    -0.064 A 
ATOM     18  C5  <0> A   1       1.208  -0.679  -0.012  0.00  0.00    +0.011 A 
ATOM     19  C6  <0> A   1       0.002  -0.004   0.002  0.00  0.00    -0.001 A 
ENDBRANCH  13  17
ENDBRANCH  11  13
ENDBRANCH   1  11
BRANCH   5  20
ATOM     20  O2  <0> A   1       8.168  -3.188  -0.241  0.00  0.00    -0.479 OA
ATOM     21  H10 <0> A   1       7.959  -4.081  -0.546  0.00  0.00    +0.370 HD
ENDBRANCH   5  20
TORSDOF 5
ENDMDL
MODEL       84
REMARK  Name = CHEMBL160038
REMARK  6 active torsions:
REMARK  status: ('A' for Active; 'I' for Inactive)
REMARK    1  A    between atoms: C4_4  and  C7_7
REMARK    2  A    between atoms: C7_7  and  C8_8
REMARK    3  A    between atoms: C8_8  and  C9_10
REMARK    4  A    between atoms: C11_12  and  N1_18
REMARK    5  A    between atoms: C12_13  and  O3_17
REMARK    6  A    between atoms: C13_14  and  O2_16
REMARK                            x       y       z     vdW  Elec       q    Type
REMARK                         _______ _______ _______ _____ _____    ______ ____
ROOT
ATOM      1  C9  <0> A   1       5.427  -1.666   1.629  0.00  0.00    -0.159 A 
ATOM      2  C10 <0> A   1       5.848  -1.906   2.943  0.00  0.00    +0.177 A 
ATOM      3  C11 <0> A   1       7.032  -2.569   3.176  0.00  0.00    -0.077 A 
ATOM      4  C12 <0> A   1       7.812  -3.000   2.110  0.00  0.00    +0.183 A 
ATOM      5  C13 <0> A   1       7.400  -2.764   0.799  0.00  0.00    +0.076 A 
ATOM      6  C14 <0> A   1       6.212  -2.105   0.556  0.00  0.00    +0.126 A 
ENDROOT
BRANCH   3   7
ATOM      7  N1  <0> A   1       7.475  -2.822   4.565  0.00  0.00    +0.034 N 
ATOM      8  O4  <0> A   1       6.797  -2.447   5.494  0.00  0.00    -0.156 OA
ATOM      9  O5  <0> A   1       8.514  -3.404   4.772  0.00  0.00    -0.129 OA
ENDBRANCH   3   7
BRANCH   1  10
ATOM     10  C8  <0> A   1       4.164  -0.959   1.377  0.00  0.00    +0.399 C 
ATOM     11  O1  <0> A   1       3.486  -0.579   2.308  0.00  0.00    -0.420 OA
BRANCH  10  12
ATOM     12  C7  <0> A   1       3.711  -0.707  -0.038  0.00  0.00    +0.102 C 
BRANCH  12  16
ATOM     13  C1  <0> A   1      -0.017   1.378   0.010  0.00  0.00    +0.007 A 
ATOM     14  C2  <0> A   1       1.171   2.086   0.002  0.00  0.00    +0.007 A 
ATOM     15  C3  <0> A   1       2.377   1.411  -0.013  0.00  0.00    +0.014 A 
ATOM     16  C4  <0> A   1       2.396   0.029  -0.020  0.00  0.00    -0.083 A 
ATOM     17  C5  <0> A   1       1.208  -0.679  -0.012  0.00  0.00    +0.013 A 
ATOM     18  C6  <0> A   1       0.002  -0.004   0.002  0.00  0.00    +0.006 A 
ENDBRANCH  12  16
ENDBRANCH  10  12
ENDBRANCH   1  10
BRANCH   5  19
ATOM     19  O2  <0> A   1       8.168  -3.188  -0.241  0.00  0.00    -0.469 OA
ATOM     20  H10 <0> A   1       7.959  -4.081  -0.546  0.00  0.00    +0.399 HD
ENDBRANCH   5  19
BRANCH   4  21
ATOM     21  O3  <0> A   1       8.978  -3.653   2.346  0.00  0.00    -0.459 OA
ATOM     22  H11 <0> A   1       8.885  -4.613   2.412  0.00  0.00    +0.409 HD
ENDBRANCH   4  21
TORSDOF 6
ENDMDL
MODEL       85
REMARK  Name = CHEMBL1324
REMARK  6 active torsions:
REMARK  status: ('A' for Active; 'I' for Inactive)
REMARK    1  A    between atoms: C1_1  and  C2_2
REMARK    2  A    between atoms: C5_5  and  C8_8
REMARK    3  A    between atoms: C8_8  and  C9_10
REMARK    4  A    between atoms: C11_12  and  N1_18
REMARK    5  A    between atoms: C12_13  and  O3_17
REMARK    6  A    between atoms: C13_14  and  O2_16
REMARK                            x       y       z     vdW  Elec       q    Type
REMARK                         _______ _______ _______ _____ _____    ______ ____
ROOT
ATOM      1  C9  <0> A   1       0.188  -4.994   1.246  0.00  0.00    -0.146 A 
ATOM      2  C10 <0> A   1      -0.413  -4.503   2.410  0.00  0.00    +0.154 A 
ATOM      3  C11 <0> A   1      -0.293  -5.198   3.593  0.00  0.00    -0.074 A 
ATOM      4  C12 <0> A   1       0.424  -6.387   3.634  0.00  0.00    +0.178 A 
ATOM      5  C13 <0> A   1       1.026  -6.882   2.477  0.00  0.00    +0.081 A 
ATOM      6  C14 <0> A   1       0.905  -6.194   1.286  0.00  0.00    +0.134 A 
ENDROOT
BRANCH   3   7
ATOM      7  N1  <0> A   1      -0.929  -4.677   4.823  0.00  0.00    +0.035 N 
ATOM      8  O4  <0> A   1      -1.553  -3.642   4.790  0.00  0.00    -0.158 OA
ATOM      9  O5  <0> A   1      -0.825  -5.286   5.862  0.00  0.00    -0.128 OA
ENDBRANCH   3   7
BRANCH   1  10
ATOM     10  C8  <0> A   1       0.060  -4.251  -0.021  0.00  0.00    +0.447 C 
ATOM     11  O1  <0> A   1      -0.010  -4.854  -1.075  0.00  0.00    -0.432 OA
BRANCH  10  16
ATOM     12  C1  <0> A   1      -0.111   1.501   0.019  0.00  0.00    +0.100 C 
ATOM     13  C2  <0> A   1      -0.066  -0.006   0.008  0.00  0.00    -0.044 A 
ATOM     14  C3  <0> A   1      -0.301  -0.693  -1.169  0.00  0.00    +0.002 A 
ATOM     15  C4  <0> A   1      -0.262  -2.072  -1.186  0.00  0.00    +0.088 A 
ATOM     16  C5  <0> A   1       0.016  -2.774  -0.011  0.00  0.00    -0.177 A 
ATOM     17  C6  <0> A   1       0.253  -2.073   1.174  0.00  0.00    +0.053 A 
ATOM     18  C7  <0> A   1       0.215  -0.694   1.175  0.00  0.00    +0.006 A 
ENDBRANCH  10  16
ENDBRANCH   1  10
BRANCH   5  19
ATOM     19  O2  <0> A   1       1.728  -8.046   2.521  0.00  0.00    -0.469 OA
ATOM     20  H10 <0> A   1       1.195  -8.834   2.344  0.00  0.00    +0.400 HD
ENDBRANCH   5  19
BRANCH   4  21
ATOM     21  O3  <0> A   1       0.539  -7.069   4.802  0.00  0.00    -0.458 OA
ATOM     22  H11 <0> A   1      -0.163  -7.716   4.951  0.00  0.00    +0.409 HD
ENDBRANCH   4  21
TORSDOF 5
ENDMDL
MODEL       86
REMARK  Name = CHEMBL1324
REMARK  5 active torsions:
REMARK  status: ('A' for Active; 'I' for Inactive)
REMARK    1  A    between atoms: C1_1  and  C2_2
REMARK    2  A    between atoms: C5_5  and  C8_8
REMARK    3  A    between atoms: C8_8  and  C9_10
REMARK    4  A    between atoms: C11_12  and  N1_18
REMARK    5  A    between atoms: C13_14  and  O2_16
REMARK                            x       y       z     vdW  Elec       q    Type
REMARK                         _______ _______ _______ _____ _____    ______ ____
ROOT
ATOM      1  C9  <0> A   1       0.188  -4.994   1.246  0.00  0.00    -0.277 A 
ATOM      2  C10 <0> A   1      -0.413  -4.503   2.410  0.00  0.00    +0.168 A 
ATOM      3  C11 <0> A   1      -0.293  -5.198   3.593  0.00  0.00    -0.200 A 
ATOM      4  C12 <0> A   1       0.424  -6.387   3.634  0.00  0.00    +0.307 A 
ATOM      5  C13 <0> A   1       1.026  -6.882   2.477  0.00  0.00    -0.023 A 
ATOM      6  C14 <0> A   1       0.905  -6.194   1.286  0.00  0.00    +0.104 A 
ATOM      7  O3  <0> A   1       0.539  -7.069   4.802  0.00  0.00    -0.608 OA
ENDROOT
BRANCH   3   8
ATOM      8  N1  <0> A   1      -0.929  -4.677   4.823  0.00  0.00    +0.071 N 
ATOM      9  O4  <0> A   1      -1.553  -3.642   4.790  0.00  0.00    -0.251 OA
ATOM     10  O5  <0> A   1      -0.825  -5.286   5.862  0.00  0.00    -0.155 OA
ENDBRANCH   3   8
BRANCH   1  11
ATOM     11  C8  <0> A   1       0.060  -4.251  -0.021  0.00  0.00    +0.457 C 
ATOM     12  O1  <0> A   1      -0.010  -4.854  -1.075  0.00  0.00    -0.472 OA
BRANCH  11  17
ATOM     13  C1  <0> A   1      -0.111   1.501   0.019  0.00  0.00    +0.091 C 
ATOM     14  C2  <0> A   1      -0.066  -0.006   0.008  0.00  0.00    -0.063 A 
ATOM     15  C3  <0> A   1      -0.301  -0.693  -1.169  0.00  0.00    -0.012 A 
ATOM     16  C4  <0> A   1      -0.262  -2.072  -1.186  0.00  0.00    +0.070 A 
ATOM     17  C5  <0> A   1       0.016  -2.774  -0.011  0.00  0.00    -0.160 A 
ATOM     18  C6  <0> A   1       0.253  -2.073   1.174  0.00  0.00    +0.067 A 
ATOM     19  C7  <0> A   1       0.215  -0.694   1.175  0.00  0.00    -0.003 A 
ENDBRANCH  11  17
ENDBRANCH   1  11
BRANCH   5  20
ATOM     20  O2  <0> A   1       1.728  -8.046   2.521  0.00  0.00    -0.479 OA
ATOM     21  H10 <0> A   1       1.195  -8.834   2.344  0.00  0.00    +0.370 HD
ENDBRANCH   5  20
TORSDOF 4
ENDMDL
