REMARK  Name = CHEMBL1089538
REMARK                            x       y       z     vdW  Elec       q    Type
REMARK                         _______ _______ _______ _____ _____    ______ ____
ROOT
ATOM      1  C   LIG    1       -3.461  -4.186   0.191  0.00  0.00    -0.177 A 
ATOM      2  C   LIG    1       -3.181  -5.023   1.229  0.00  0.00    +0.028 A 
ATOM      3 CL   LIG    1       -2.582  -4.382   2.727  0.00  0.00    +0.005 Cl
ATOM      4  C   LIG    1       -3.379  -6.408   1.085  0.00  0.00    -0.084 A 
ATOM      5  C   LIG    1       -3.147  -7.431   2.042  0.00  0.00    +0.135 A 
ATOM      6  C   LIG    1       -3.390  -8.735   1.742  0.00  0.00    +0.095 A 
ATOM      7  C   LIG    1       -3.876  -9.116   0.486  0.00  0.00    +0.192 A 
ATOM      8  C   LIG    1       -4.114  -8.147  -0.472  0.00  0.00    -0.013 A 
ATOM      9  C   LIG    1       -3.870  -6.823  -0.176  0.00  0.00    -0.091 A 
ATOM     10  S   LIG    1       -4.037  -5.302  -1.077  0.00  0.00    +0.220 S 
ENDROOT
BRANCH   8  11
ATOM     11  N   LIG    1       -4.627  -8.529  -1.807  0.00  0.00    +0.023 N 
ATOM     12  O   LIG    1       -3.855  -8.788  -2.700  0.00  0.00    -0.109 OA
ATOM     13  O   LIG    1       -5.819  -8.582  -2.004  0.00  0.00    -0.125 OA
ENDBRANCH   8  11
BRANCH   1  14
ATOM     14  C   LIG    1       -3.328  -2.728   0.132  0.00  0.00    +0.548 C 
ATOM     15  O   LIG    1       -2.915  -2.116   1.098  0.00  0.00    -0.447 OA
BRANCH  14  16
ATOM     16  O   LIG    1       -3.664  -2.065  -0.993  0.00  0.00    -0.342 OA
BRANCH  16  17
ATOM     17  C   LIG    1       -3.616  -0.638  -0.944  0.00  0.00    +0.398 C 
ATOM     18  C   LIG    1       -4.290  -0.062  -2.191  0.00  0.00    +0.090 C 
BRANCH  17  19
ATOM     19  O   LIG    1       -2.254  -0.208  -0.898  0.00  0.00    -0.350 OA
BRANCH  19  20
ATOM     20  C   LIG    1       -1.484  -0.507  -1.956  0.00  0.00    +0.462 C 
ATOM     21  O   LIG    1       -1.922  -1.198  -2.846  0.00  0.00    -0.483 OA
BRANCH  20  23
ATOM     22  C   LIG    1        0.729  -0.492  -0.838  0.00  0.00    +0.058 C 
ATOM     23  C   LIG    1       -0.074   0.020  -2.035  0.00  0.00    +0.024 C 
ATOM     24  C   LIG    1        0.578  -0.464  -3.332  0.00  0.00    +0.064 C 
ENDBRANCH  20  23
ENDBRANCH  19  20
ENDBRANCH  17  19
ENDBRANCH  16  17
ENDBRANCH  14  16
ENDBRANCH   1  14
BRANCH   6  25
ATOM     25  O   LIG    1       -3.156  -9.689   2.683  0.00  0.00    -0.468 OA
ATOM     26  H   LIG    1       -3.917  -9.878   3.249  0.00  0.00    +0.401 HD
ENDBRANCH   6  25
BRANCH   7  27
ATOM     27  O   LIG    1       -4.111 -10.426   0.211  0.00  0.00    -0.467 OA
ATOM     28  H   LIG    1       -5.007 -10.718   0.425  0.00  0.00    +0.412 HD
ENDBRANCH   7  27
TORSDOF 9
