REMARK  Name = CHEMBL63052
REMARK                            x       y       z     vdW  Elec       q    Type
REMARK                         _______ _______ _______ _____ _____    ______ ____
ROOT
ATOM      1  C   LIG    1       -4.877   0.121   0.051  0.00  0.00    +0.014 C 
ENDROOT
BRANCH   1   2
ATOM      2  C   LIG    1       -3.700  -0.856   0.034  0.00  0.00    +0.274 C 
BRANCH   2   4
ATOM      3  C   LIG    1       -1.265  -0.761   0.011  0.00  0.00    +0.561 C 
ATOM      4  N   LIG    1       -2.442  -0.105   0.026  0.00  0.00    -0.727 N 
ATOM      5  H   LIG    1       -2.457   0.865   0.031  0.00  0.00    +0.401 HD
ATOM      6  O   LIG    1       -1.247  -1.977   0.004  0.00  0.00    -0.528 OA
BRANCH   3  12
ATOM      7  C   LIG    1       -0.017   1.393   0.010  0.00  0.00    +0.056 A 
ATOM      8  C   LIG    1        1.167   2.098   0.002  0.00  0.00    +0.005 A 
ATOM      9  C   LIG    1        2.380   1.423  -0.013  0.00  0.00    +0.110 A 
ATOM     10  C   LIG    1        2.406   0.030  -0.021  0.00  0.00    +0.075 A 
ATOM     11  C   LIG    1        1.223  -0.683  -0.013  0.00  0.00    +0.080 A 
ATOM     12  C   LIG    1        0.002  -0.004   0.002  0.00  0.00    -0.131 A 
BRANCH   9  13
ATOM     13  O   LIG    1        3.544   2.123  -0.022  0.00  0.00    -0.486 OA
ATOM     14  H   LIG    1        3.890   2.321   0.859  0.00  0.00    +0.394 HD
ENDBRANCH   9  13
BRANCH  10  15
ATOM     15  O   LIG    1        3.597  -0.628  -0.037  0.00  0.00    -0.483 OA
ATOM     16  H   LIG    1        3.950  -0.823   0.842  0.00  0.00    +0.391 HD
ENDBRANCH  10  15
ENDBRANCH   3  12
ENDBRANCH   2   4
ENDBRANCH   1   2
BRANCH   1  17
ATOM     17  C   LIG    1       -6.191  -0.664   0.060  0.00  0.00    +0.274 C 
BRANCH  17  18
ATOM     18  N   LIG    1       -7.318   0.272   0.076  0.00  0.00    -0.727 N 
ATOM     19  H   LIG    1       -7.155   1.228   0.079  0.00  0.00    +0.401 HD
ATOM     20  C   LIG    1       -8.582  -0.196   0.086  0.00  0.00    +0.561 C 
ATOM     21  O   LIG    1       -8.786  -1.395   0.082  0.00  0.00    -0.528 OA
BRANCH  20  22
ATOM     22  C   LIG    1       -9.718   0.746   0.102  0.00  0.00    -0.131 A 
ATOM     23  C   LIG    1       -9.485   2.123   0.101  0.00  0.00    +0.056 A 
ATOM     24  C   LIG    1      -10.546   3.002   0.116  0.00  0.00    +0.005 A 
ATOM     25  C   LIG    1      -11.849   2.522   0.132  0.00  0.00    +0.110 A 
ATOM     26  C   LIG    1      -12.088   1.148   0.134  0.00  0.00    +0.075 A 
ATOM     27  C   LIG    1      -11.029   0.262   0.113  0.00  0.00    +0.080 A 
BRANCH  25  28
ATOM     28  O   LIG    1      -12.892   3.392   0.147  0.00  0.00    -0.486 OA
ATOM     29  H   LIG    1      -13.205   3.645  -0.732  0.00  0.00    +0.394 HD
ENDBRANCH  25  28
BRANCH  26  30
ATOM     30  O   LIG    1      -13.366   0.681   0.150  0.00  0.00    -0.483 OA
ATOM     31  H   LIG    1      -13.747   0.547  -0.729  0.00  0.00    +0.391 HD
ENDBRANCH  26  30
ENDBRANCH  20  22
ENDBRANCH  17  18
ENDBRANCH   1  17
TORSDOF 10
