REMARK  Name = CHEMBL169033
REMARK                            x       y       z     vdW  Elec       q    Type
REMARK                         _______ _______ _______ _____ _____    ______ ____
ROOT
ATOM      1  C   LIG    1       -1.260  -0.756   0.010  0.00  0.00    -0.163 A 
ATOM      2  C   LIG    1       -1.243  -2.156   0.008  0.00  0.00    +0.176 A 
ATOM      3  C   LIG    1       -2.427  -2.858   0.016  0.00  0.00    -0.078 A 
ATOM      4  C   LIG    1       -3.640  -2.181   0.026  0.00  0.00    +0.183 A 
ATOM      5  C   LIG    1       -3.665  -0.786   0.028  0.00  0.00    +0.074 A 
ATOM      6  C   LIG    1       -2.483  -0.074   0.025  0.00  0.00    +0.129 A 
ENDROOT
BRANCH   1   8
ATOM      7  C   LIG    1       -0.018   1.503   0.010  0.00  0.00    +0.091 C 
ATOM      8  C   LIG    1        0.002  -0.004   0.002  0.00  0.00    +0.397 C 
ATOM      9  O   LIG    1        1.061  -0.596  -0.011  0.00  0.00    -0.438 OA
ENDBRANCH   1   8
BRANCH   3  10
ATOM     10  N   LIG    1       -2.408  -4.338   0.014  0.00  0.00    +0.034 N 
ATOM     11  O   LIG    1       -3.447  -4.956   0.021  0.00  0.00    -0.129 OA
ATOM     12  O   LIG    1       -1.353  -4.928   0.005  0.00  0.00    -0.156 OA
ENDBRANCH   3  10
BRANCH   4  13
ATOM     13  O   LIG    1       -4.805  -2.878   0.034  0.00  0.00    -0.459 OA
ATOM     14  H   LIG    1       -5.135  -3.082   0.920  0.00  0.00    +0.409 HD
ENDBRANCH   4  13
BRANCH   5  15
ATOM     15  O   LIG    1       -4.855  -0.128   0.037  0.00  0.00    -0.470 OA
ATOM     16  H   LIG    1       -5.193   0.062   0.923  0.00  0.00    +0.399 HD
ENDBRANCH   5  15
TORSDOF 4
