REMARK  Name = CHEMBL1091982
REMARK                            x       y       z     vdW  Elec       q    Type
REMARK                         _______ _______ _______ _____ _____    ______ ____
ROOT
ATOM      1  C   LIG    1       -0.107   1.795  -5.257  0.00  0.00    -0.179 A 
ATOM      2  C   LIG    1        1.077   1.843  -5.930  0.00  0.00    +0.030 A 
ATOM      3 CL   LIG    1        1.964   0.382  -6.236  0.00  0.00    +0.006 Cl
ATOM      4  C   LIG    1        1.579   3.079  -6.378  0.00  0.00    -0.085 A 
ATOM      5  C   LIG    1        2.782   3.330  -7.089  0.00  0.00    +0.136 A 
ATOM      6  C   LIG    1        3.126   4.595  -7.450  0.00  0.00    +0.096 A 
ATOM      7  C   LIG    1        2.313   5.690  -7.138  0.00  0.00    +0.193 A 
ATOM      8  C   LIG    1        1.133   5.483  -6.445  0.00  0.00    -0.013 A 
ATOM      9  C   LIG    1        0.777   4.204  -6.075  0.00  0.00    -0.090 A 
ATOM     10  S   LIG    1       -0.608   3.506  -5.211  0.00  0.00    +0.218 S 
ENDROOT
BRANCH   8  11
ATOM     11  N   LIG    1        0.259   6.628  -6.104  0.00  0.00    +0.022 N 
ATOM     12  O   LIG    1        0.412   7.216  -5.059  0.00  0.00    -0.109 OA
ATOM     13  O   LIG    1       -0.609   6.976  -6.871  0.00  0.00    -0.124 OA
ENDBRANCH   8  11
BRANCH   1  14
ATOM     14  C   LIG    1       -0.799   0.625  -4.711  0.00  0.00    +0.549 C 
ATOM     15  O   LIG    1       -0.312  -0.482  -4.832  0.00  0.00    -0.446 OA
BRANCH  14  16
ATOM     16  O   LIG    1       -1.978   0.777  -4.073  0.00  0.00    -0.346 OA
BRANCH  16  17
ATOM     17  C   LIG    1       -2.598  -0.407  -3.566  0.00  0.00    +0.496 C 
BRANCH  17  18
ATOM     18  O   LIG    1       -1.910  -0.839  -2.390  0.00  0.00    -0.354 OA
BRANCH  18  19
ATOM     19  C   LIG    1       -2.125  -0.137  -1.266  0.00  0.00    +0.468 C 
ATOM     20  O   LIG    1       -2.872   0.812  -1.280  0.00  0.00    -0.477 OA
BRANCH  19  21
ATOM     21  C   LIG    1       -1.433  -0.534   0.013  0.00  0.00    +0.226 C 
BRANCH  21  23
ATOM     22  C   LIG    1       -0.019   1.526   0.010  0.00  0.00    +0.025 C 
ATOM     23  C   LIG    1        0.002  -0.004   0.002  0.00  0.00    -0.043 C 
ATOM     24  C   LIG    1        0.742  -0.511   1.242  0.00  0.00    +0.040 C 
ENDBRANCH  21  23
BRANCH  21  25
ATOM     25  N   LIG    1       -2.157   0.036   1.157  0.00  0.00    -0.829 NA
ATOM     26  H   LIG    1       -2.184   1.043   1.103  0.00  0.00    +0.355 HD
ATOM     27  H   LIG    1       -1.751  -0.268   2.030  0.00  0.00    +0.357 HD
ENDBRANCH  21  25
ENDBRANCH  19  21
ENDBRANCH  18  19
ENDBRANCH  17  18
ENDBRANCH  16  17
ENDBRANCH  14  16
ENDBRANCH   1  14
BRANCH   6  28
ATOM     28  O   LIG    1        4.286   4.800  -8.131  0.00  0.00    -0.468 OA
ATOM     29  H   LIG    1        4.191   4.758  -9.092  0.00  0.00    +0.401 HD
ENDBRANCH   6  28
BRANCH   7  30
ATOM     30  O   LIG    1        2.680   6.945  -7.510  0.00  0.00    -0.467 OA
ATOM     31  H   LIG    1        2.355   7.207  -8.383  0.00  0.00    +0.413 HD
ENDBRANCH   7  30
TORSDOF 11
