REMARK  Name = CHEMBL353012
REMARK                            x       y       z     vdW  Elec       q    Type
REMARK                         _______ _______ _______ _____ _____    ______ ____
ROOT
ATOM      1  C   LIG    1        2.137  -4.307  -3.891  0.00  0.00    -0.095 A 
ATOM      2  C   LIG    1        2.130  -5.699  -4.060  0.00  0.00    +0.163 A 
ATOM      3  C   LIG    1        2.674  -6.256  -5.194  0.00  0.00    -0.069 A 
ATOM      4  C   LIG    1        3.232  -5.443  -6.174  0.00  0.00    +0.177 A 
ATOM      5  C   LIG    1        3.244  -4.057  -6.014  0.00  0.00    +0.090 A 
ATOM      6  C   LIG    1        2.696  -3.488  -4.883  0.00  0.00    +0.100 A 
ENDROOT
BRANCH   3   7
ATOM      7  N   LIG    1        2.666  -7.726  -5.372  0.00  0.00    +0.034 N 
ATOM      8  O   LIG    1        3.143  -8.217  -6.368  0.00  0.00    -0.127 OA
ATOM      9  O   LIG    1        2.181  -8.435  -4.521  0.00  0.00    -0.154 OA
ENDBRANCH   3   7
BRANCH   1  11
ATOM     10  C   LIG    1        0.908  -2.497  -2.760  0.00  0.00    -0.085 C 
ATOM     11  C   LIG    1        1.559  -3.710  -2.685  0.00  0.00    +0.258 C 
BRANCH  10  12
ATOM     12  C   LIG    1        0.475  -1.818  -1.531  0.00  0.00    +0.521 C 
ATOM     13  O   LIG    1        0.690  -2.326  -0.448  0.00  0.00    -0.487 OA
BRANCH  12  14
ATOM     14  O   LIG    1       -0.161  -0.631  -1.605  0.00  0.00    -0.344 OA
BRANCH  14  16
ATOM     15  C   LIG    1       -1.255   1.302  -0.653  0.00  0.00    +0.065 C 
ATOM     16  C   LIG    1       -0.554  -0.028  -0.370  0.00  0.00    +0.210 C 
ENDBRANCH  14  16
ENDBRANCH  12  14
ENDBRANCH  10  12
BRANCH  10  17
ATOM     17  C   LIG    1        0.656  -1.898  -4.036  0.00  0.00    +0.244 C 
ATOM     18  N   LIG    1        0.455  -1.423  -5.049  0.00  0.00    -0.385 NA
ENDBRANCH  10  17
ENDBRANCH   1  11
BRANCH   4  19
ATOM     19  O   LIG    1        3.767  -6.000  -7.291  0.00  0.00    -0.457 OA
ATOM     20  H   LIG    1        3.137  -6.108  -8.017  0.00  0.00    +0.409 HD
ENDBRANCH   4  19
BRANCH   5  21
ATOM     21  O   LIG    1        3.792  -3.267  -6.975  0.00  0.00    -0.469 OA
ATOM     22  H   LIG    1        3.166  -2.985  -7.656  0.00  0.00    +0.401 HD
ENDBRANCH   5  21
TORSDOF 8
