REMARK  Name = CHEMBL353012
REMARK                            x       y       z     vdW  Elec       q    Type
REMARK                         _______ _______ _______ _____ _____    ______ ____
ROOT
ATOM      1  C   LIG    1        2.133  -4.256  -3.916  0.00  0.00    -0.241 A 
ATOM      2  C   LIG    1        1.636  -5.452  -4.455  0.00  0.00    +0.189 A 
ATOM      3  C   LIG    1        2.178  -5.962  -5.612  0.00  0.00    -0.196 A 
ATOM      4  C   LIG    1        3.217  -5.295  -6.251  0.00  0.00    +0.309 A 
ATOM      5  O   LIG    1        3.747  -5.803  -7.393  0.00  0.00    -0.595 OA
ATOM      6  C   LIG    1        3.717  -4.104  -5.722  0.00  0.00    -0.010 A 
ATOM      7  C   LIG    1        3.178  -3.581  -4.565  0.00  0.00    +0.084 A 
ENDROOT
BRANCH   3   8
ATOM      8  N   LIG    1        1.653  -7.224  -6.179  0.00  0.00    +0.068 N 
ATOM      9  O   LIG    1        2.128  -7.674  -7.196  0.00  0.00    -0.152 OA
ATOM     10  O   LIG    1        0.750  -7.806  -5.625  0.00  0.00    -0.244 OA
ENDBRANCH   3   8
BRANCH   1  12
ATOM     11  C   LIG    1        1.457  -2.345  -2.518  0.00  0.00    -0.174 C 
ATOM     12  C   LIG    1        1.559  -3.710  -2.685  0.00  0.00    +0.298 C 
BRANCH  11  13
ATOM     13  C   LIG    1        1.038  -1.793  -1.222  0.00  0.00    +0.530 C 
ATOM     14  O   LIG    1        0.781  -2.540  -0.297  0.00  0.00    -0.512 OA
BRANCH  13  15
ATOM     15  O   LIG    1        0.938  -0.459  -1.058  0.00  0.00    -0.349 OA
BRANCH  15  17
ATOM     16  C   LIG    1        0.471   1.537   0.222  0.00  0.00    +0.058 C 
ATOM     17  C   LIG    1        0.526   0.008   0.228  0.00  0.00    +0.199 C 
ENDBRANCH  15  17
ENDBRANCH  13  15
ENDBRANCH  11  13
BRANCH  11  18
ATOM     18  C   LIG    1        1.759  -1.466  -3.607  0.00  0.00    +0.270 C 
ATOM     19  N   LIG    1        1.999  -0.768  -4.471  0.00  0.00    -0.427 NA
ENDBRANCH  11  18
ENDBRANCH   1  12
BRANCH   6  20
ATOM     20  O   LIG    1        4.734  -3.456  -6.351  0.00  0.00    -0.479 OA
ATOM     21  H   LIG    1        4.442  -2.811  -7.009  0.00  0.00    +0.374 HD
ENDBRANCH   6  20
TORSDOF 7
