REMARK  Name = CHEMBL1089630
REMARK                            x       y       z     vdW  Elec       q    Type
REMARK                         _______ _______ _______ _____ _____    ______ ____
ROOT
ATOM      1  C   LIG    1       -4.258  -4.476   0.019  0.00  0.00    -0.264 A 
ATOM      2  C   LIG    1       -4.617  -5.790   0.021  0.00  0.00    +0.098 A 
ATOM      3 CL   LIG    1       -3.398  -7.026   0.010  0.00  0.00    -0.035 Cl
ATOM      4  C   LIG    1       -5.979  -6.144   0.031  0.00  0.00    -0.215 A 
ATOM      5  C   LIG    1       -6.546  -7.446   0.034  0.00  0.00    +0.108 A 
ATOM      6  C   LIG    1       -7.894  -7.619   0.043  0.00  0.00    +0.018 A 
ATOM      7  C   LIG    1       -8.770  -6.527   0.050  0.00  0.00    +0.331 A 
ATOM      8  O   LIG    1      -10.114  -6.726   0.059  0.00  0.00    -0.622 OA
ATOM      9  C   LIG    1       -8.253  -5.243   0.048  0.00  0.00    -0.165 A 
ATOM     10  C   LIG    1       -6.887  -5.059   0.038  0.00  0.00    +0.011 A 
ATOM     11  S   LIG    1       -5.830  -3.633   0.039  0.00  0.00    +0.113 S 
ENDROOT
BRANCH   9  12
ATOM     12  N   LIG    1       -9.162  -4.074   0.055  0.00  0.00    +0.062 N 
ATOM     13  O   LIG    1       -9.540  -3.596  -0.990  0.00  0.00    -0.160 OA
ATOM     14  O   LIG    1       -9.526  -3.598   1.104  0.00  0.00    -0.161 OA
ENDBRANCH   9  12
BRANCH   1  15
ATOM     15  C   LIG    1       -2.912  -3.898   0.009  0.00  0.00    +0.560 C 
ATOM     16  O   LIG    1       -1.937  -4.625  -0.004  0.00  0.00    -0.491 OA
BRANCH  15  17
ATOM     17  O   LIG    1       -2.753  -2.558   0.015  0.00  0.00    -0.346 OA
BRANCH  17  18
ATOM     18  C   LIG    1       -1.413  -2.063   0.004  0.00  0.00    +0.204 C 
BRANCH  18  19
ATOM     19  C   LIG    1       -1.433  -0.534   0.013  0.00  0.00    +0.030 C 
BRANCH  19  21
ATOM     20  C   LIG    1       -0.019   1.526   0.010  0.00  0.00    +0.016 C 
ATOM     21  C   LIG    1        0.002  -0.004   0.002  0.00  0.00    +0.009 C 
ENDBRANCH  19  21
ENDBRANCH  18  19
ENDBRANCH  17  18
ENDBRANCH  15  17
ENDBRANCH   1  15
BRANCH   6  22
ATOM     22  O   LIG    1       -8.404  -8.880   0.045  0.00  0.00    -0.478 OA
ATOM     23  H   LIG    1       -8.545  -9.246   0.929  0.00  0.00    +0.378 HD
ENDBRANCH   6  22
TORSDOF 7
