REMARK  Name = CHEMBL1091981
REMARK                            x       y       z     vdW  Elec       q    Type
REMARK                         _______ _______ _______ _____ _____    ______ ____
ROOT
ATOM      1  C   LIG    1        0.125  -5.198  -2.296  0.00  0.00    -0.267 A 
ATOM      2  C   LIG    1        1.465  -5.213  -2.543  0.00  0.00    +0.099 A 
ATOM      3 CL   LIG    1        2.560  -4.431  -1.447  0.00  0.00    -0.034 Cl
ATOM      4  C   LIG    1        1.958  -5.864  -3.688  0.00  0.00    -0.216 A 
ATOM      5  C   LIG    1        3.308  -5.986  -4.113  0.00  0.00    +0.109 A 
ATOM      6  C   LIG    1        3.621  -6.654  -5.256  0.00  0.00    +0.018 A 
ATOM      7  C   LIG    1        2.632  -7.241  -6.052  0.00  0.00    +0.331 A 
ATOM      8  O   LIG    1        2.971  -7.902  -7.190  0.00  0.00    -0.621 OA
ATOM      9  C   LIG    1        1.306  -7.143  -5.670  0.00  0.00    -0.165 A 
ATOM     10  C   LIG    1        0.980  -6.468  -4.513  0.00  0.00    +0.011 A 
ATOM     11  S   LIG    1       -0.544  -6.117  -3.672  0.00  0.00    +0.119 S 
ENDROOT
BRANCH   9  12
ATOM     12  N   LIG    1        0.244  -7.757  -6.498  0.00  0.00    +0.062 N 
ATOM     13  O   LIG    1       -0.280  -7.118  -7.380  0.00  0.00    -0.160 OA
ATOM     14  O   LIG    1       -0.099  -8.898  -6.292  0.00  0.00    -0.161 OA
ENDBRANCH   9  12
BRANCH   1  15
ATOM     15  C   LIG    1       -0.590  -4.584  -1.175  0.00  0.00    +0.559 C 
ATOM     16  O   LIG    1        0.027  -3.988  -0.314  0.00  0.00    -0.479 OA
BRANCH  15  17
ATOM     17  O   LIG    1       -1.933  -4.681  -1.097  0.00  0.00    -0.344 OA
BRANCH  17  18
ATOM     18  C   LIG    1       -2.555  -4.157   0.078  0.00  0.00    +0.392 C 
ATOM     19  C   LIG    1       -4.018  -4.601   0.123  0.00  0.00    +0.082 C 
BRANCH  18  20
ATOM     20  O   LIG    1       -2.491  -2.729   0.055  0.00  0.00    -0.355 OA
BRANCH  20  21
ATOM     21  C   LIG    1       -3.140  -2.106  -0.941  0.00  0.00    +0.456 C 
ATOM     22  O   LIG    1       -3.658  -2.752  -1.821  0.00  0.00    -0.483 OA
BRANCH  21  23
ATOM     23  C   LIG    1       -3.223  -0.602  -0.962  0.00  0.00    +0.095 C 
BRANCH  23  25
ATOM     24  C   LIG    1       -4.095   1.377  -2.215  0.00  0.00    +0.021 C 
ATOM     25  C   LIG    1       -4.011  -0.151  -2.194  0.00  0.00    +0.030 C 
ENDBRANCH  23  25
ENDBRANCH  21  23
ENDBRANCH  20  21
ENDBRANCH  18  20
ENDBRANCH  17  18
ENDBRANCH  15  17
ENDBRANCH   1  15
BRANCH   6  26
ATOM     26  O   LIG    1        4.925  -6.751  -5.633  0.00  0.00    -0.478 OA
ATOM     27  H   LIG    1        5.378  -7.530  -5.283  0.00  0.00    +0.378 HD
ENDBRANCH   6  26
TORSDOF 9
