REMARK  Name = CHEMBL166486
REMARK                            x       y       z     vdW  Elec       q    Type
REMARK                         _______ _______ _______ _____ _____    ______ ____
ROOT
ATOM      1  C   LIG    1        0.013   1.357  -0.054  0.00  0.00    +0.162 A 
ATOM      2  C   LIG    1        1.205   2.089   0.038  0.00  0.00    -0.089 A 
ATOM      3  C   LIG    1        2.429   1.415   0.157  0.00  0.00    +0.094 A 
ATOM      4  C   LIG    1        2.452   0.036   0.182  0.00  0.00    +0.090 A 
ATOM      5  C   LIG    1        1.261  -0.685   0.090  0.00  0.00    +0.176 A 
ATOM      6  C   LIG    1        0.048  -0.018  -0.028  0.00  0.00    -0.069 A 
ENDROOT
BRANCH   6   7
ATOM      7  N   LIG    1       -1.212  -0.790  -0.124  0.00  0.00    +0.034 N 
ATOM      8  O   LIG    1       -1.183  -1.999  -0.101  0.00  0.00    -0.128 OA
ATOM      9  O   LIG    1       -2.269  -0.212  -0.227  0.00  0.00    -0.154 OA
ENDBRANCH   6   7
BRANCH   2  10
ATOM     10  C   LIG    1        1.173   3.554   0.009  0.00  0.00    +0.231 C 
ATOM     11  C   LIG    1        2.241   4.256  -0.501  0.00  0.00    +0.024 C 
BRANCH  11  12
ATOM     12  C   LIG    1        3.319   3.559  -1.136  0.00  0.00    +0.238 C 
ATOM     13  N   LIG    1        4.174   3.006  -1.639  0.00  0.00    -0.369 NA
ENDBRANCH  11  12
BRANCH  11  14
ATOM     14  C   LIG    1        2.274   5.684  -0.397  0.00  0.00    +0.249 C 
ATOM     15  N   LIG    1        2.301   6.817  -0.315  0.00  0.00    -0.371 NA
ENDBRANCH  11  14
ENDBRANCH   2  10
BRANCH   4  16
ATOM     16  O   LIG    1        3.637  -0.622   0.297  0.00  0.00    -0.468 OA
ATOM     17  H   LIG    1        3.903  -0.797   1.210  0.00  0.00    +0.400 HD
ENDBRANCH   4  16
BRANCH   5  18
ATOM     18  O   LIG    1        1.288  -2.042   0.115  0.00  0.00    -0.458 OA
ATOM     19  H   LIG    1        1.218  -2.421   1.002  0.00  0.00    +0.409 HD
ENDBRANCH   5  18
TORSDOF 6
