REMARK  Name = CHEMBL355017
REMARK                            x       y       z     vdW  Elec       q    Type
REMARK                         _______ _______ _______ _____ _____    ______ ____
ROOT
ATOM      1  C   LIG    1       -0.017   1.378   0.010  0.00  0.00    +0.137 A 
ATOM      2  C   LIG    1        1.170   2.089   0.002  0.00  0.00    -0.147 A 
ATOM      3 CL   LIG    1        1.141   3.825   0.012  0.00  0.00    -0.091 Cl
ATOM      4  C   LIG    1        2.381   1.419  -0.013  0.00  0.00    +0.069 A 
ATOM      5  C   LIG    1        2.405   0.034  -0.021  0.00  0.00    -0.008 A 
ATOM      6  C   LIG    1        1.211  -0.681  -0.013  0.00  0.00    +0.293 A 
ATOM      7  O   LIG    1        1.231  -2.041  -0.021  0.00  0.00    -0.619 OA
ATOM      8  C   LIG    1        0.002  -0.004   0.002  0.00  0.00    -0.193 A 
ENDROOT
BRANCH   8   9
ATOM      9  N   LIG    1       -1.270  -0.761   0.010  0.00  0.00    +0.073 N 
ATOM     10  O   LIG    1       -1.253  -1.970   0.003  0.00  0.00    -0.156 OA
ATOM     11  O   LIG    1       -2.325  -0.171   0.023  0.00  0.00    -0.253 OA
ENDBRANCH   8   9
BRANCH   5  12
ATOM     12  O   LIG    1        3.594  -0.627  -0.037  0.00  0.00    -0.477 OA
ATOM     13  H   LIG    1        3.947  -0.822   0.842  0.00  0.00    +0.371 HD
ENDBRANCH   5  12
TORSDOF 2
