MODEL 1
REMARK VINA RESULT:      -6.3      0.000      0.000
REMARK  Name = CHEMBL1089539
REMARK                            x       y       z     vdW  Elec       q    Type
REMARK                         _______ _______ _______ _____ _____    ______ ____
ROOT
ATOM      1  C   LIG    1        6.068  -7.467 -19.037  0.00  0.00    -0.269 A 
ATOM      2  C   LIG    1        6.688  -6.433 -19.672  0.00  0.00    +0.101 A 
ATOM      3 CL   LIG    1        7.058  -6.550 -21.365  0.00  0.00    -0.034 Cl
ATOM      4  C   LIG    1        7.028  -5.273 -18.956  0.00  0.00    -0.216 A 
ATOM      5  C   LIG    1        7.672  -4.102 -19.439  0.00  0.00    +0.109 A 
ATOM      6  C   LIG    1        7.932  -3.057 -18.608  0.00  0.00    +0.018 A 
ATOM      7  C   LIG    1        7.578  -3.095 -17.255  0.00  0.00    +0.331 A 
ATOM      8  O   LIG    1        7.850  -2.038 -16.445  0.00  0.00    -0.621 OA
ATOM      9  C   LIG    1        6.949  -4.220 -16.750  0.00  0.00    -0.164 A 
ATOM     10  C   LIG    1        6.682  -5.282 -17.584  0.00  0.00    +0.012 A 
ATOM     11  S   LIG    1        5.910  -6.866 -17.364  0.00  0.00    +0.117 S 
ENDROOT
BRANCH   9  12
ATOM     12  N   LIG    1        6.567  -4.281 -15.320  0.00  0.00    +0.061 N 
ATOM     13  O   LIG    1        7.023  -5.145 -14.609  0.00  0.00    -0.160 OA
ATOM     14  O   LIG    1        5.799  -3.465 -14.865  0.00  0.00    -0.161 OA
ENDBRANCH   9  12
BRANCH   1  15
ATOM     15  C   LIG    1        5.632  -8.751 -19.591  0.00  0.00    +0.560 C 
ATOM     16  O   LIG    1        6.449  -9.619 -19.827  0.00  0.00    -0.478 OA
BRANCH  15  17
ATOM     17  O   LIG    1        4.324  -8.970 -19.837  0.00  0.00    -0.349 OA
BRANCH  17  18
ATOM     18  C   LIG    1        3.806  -8.481 -21.076  0.00  0.00    +0.481 C 
BRANCH  18  19
ATOM     19  O   LIG    1        2.380  -8.577 -21.067  0.00  0.00    -0.357 OA
BRANCH  19  20
ATOM     20  C   LIG    1        1.695  -7.434 -20.913  0.00  0.00    +0.458 C 
ATOM     21  O   LIG    1        2.266  -6.426 -20.571  0.00  0.00    -0.490 OA
BRANCH  20  22
ATOM     22  C   LIG    1        0.210  -7.407 -21.169  0.00  0.00    +0.099 C 
BRANCH  22  24
ATOM     23  C   LIG    1       -1.459  -8.702 -19.834  0.00  0.00    +0.022 C 
ATOM     24  C   LIG    1       -0.379  -8.796 -20.913  0.00  0.00    +0.030 C 
ENDBRANCH  22  24
ENDBRANCH  20  22
ENDBRANCH  19  20
ENDBRANCH  18  19
ENDBRANCH  17  18
ENDBRANCH  15  17
ENDBRANCH   1  15
BRANCH   6  25
ATOM     25  O   LIG    1        8.551  -1.951 -19.103  0.00  0.00    -0.478 OA
ATOM     26  H   LIG    1        9.275  -1.626 -18.551  0.00  0.00    +0.378 HD
ENDBRANCH   6  25
TORSDOF 9
ENDMDL
MODEL 2
REMARK VINA RESULT:      -5.9     10.669     13.095
REMARK  Name = CHEMBL1089539
REMARK                            x       y       z     vdW  Elec       q    Type
REMARK                         _______ _______ _______ _____ _____    ______ ____
ROOT
ATOM      1  C   LIG    1       -2.432 -14.985 -20.871  0.00  0.00    -0.269 A 
ATOM      2  C   LIG    1       -2.962 -15.059 -19.618  0.00  0.00    +0.101 A 
ATOM      3 CL   LIG    1       -3.128 -16.600 -18.834  0.00  0.00    -0.034 Cl
ATOM      4  C   LIG    1       -3.376 -13.887 -18.961  0.00  0.00    -0.216 A 
ATOM      5  C   LIG    1       -3.947 -13.763 -17.666  0.00  0.00    +0.109 A 
ATOM      6  C   LIG    1       -4.296 -12.545 -17.173  0.00  0.00    +0.018 A 
ATOM      7  C   LIG    1       -4.107 -11.375 -17.917  0.00  0.00    +0.331 A 
ATOM      8  O   LIG    1       -4.466 -10.169 -17.402  0.00  0.00    -0.621 OA
ATOM      9  C   LIG    1       -3.553 -11.458 -19.182  0.00  0.00    -0.164 A 
ATOM     10  C   LIG    1       -3.197 -12.688 -19.690  0.00  0.00    +0.012 A 
ATOM     11  S   LIG    1       -2.471 -13.234 -21.215  0.00  0.00    +0.117 S 
ENDROOT
BRANCH   9  12
ATOM     12  N   LIG    1       -3.345 -10.231 -19.986  0.00  0.00    +0.061 N 
ATOM     13  O   LIG    1       -4.041 -10.016 -20.952  0.00  0.00    -0.160 OA
ATOM     14  O   LIG    1       -2.480  -9.446 -19.677  0.00  0.00    -0.161 OA
ENDBRANCH   9  12
BRANCH   1  15
ATOM     15  C   LIG    1       -1.944 -16.072 -21.722  0.00  0.00    +0.560 C 
ATOM     16  O   LIG    1       -0.864 -16.583 -21.496  0.00  0.00    -0.478 OA
BRANCH  15  17
ATOM     17  O   LIG    1       -2.693 -16.507 -22.756  0.00  0.00    -0.349 OA
BRANCH  17  18
ATOM     18  C   LIG    1       -3.795 -17.362 -22.444  0.00  0.00    +0.481 C 
BRANCH  18  19
ATOM     19  O   LIG    1       -3.329 -18.705 -22.298  0.00  0.00    -0.357 OA
BRANCH  19  20
ATOM     20  C   LIG    1       -3.624 -19.330 -21.148  0.00  0.00    +0.458 C 
ATOM     21  O   LIG    1       -2.793 -20.013 -20.599  0.00  0.00    -0.490 OA
BRANCH  20  22
ATOM     22  C   LIG    1       -4.995 -19.179 -20.539  0.00  0.00    +0.099 C 
BRANCH  22  24
ATOM     23  C   LIG    1       -6.731 -19.808 -22.223  0.00  0.00    +0.022 C 
ATOM     24  C   LIG    1       -5.902 -20.306 -21.037  0.00  0.00    +0.030 C 
ENDBRANCH  22  24
ENDBRANCH  20  22
ENDBRANCH  19  20
ENDBRANCH  18  19
ENDBRANCH  17  18
ENDBRANCH  15  17
ENDBRANCH   1  15
BRANCH   6  25
ATOM     25  O   LIG    1       -4.842 -12.461 -15.929  0.00  0.00    -0.478 OA
ATOM     26  H   LIG    1       -4.202 -12.569 -15.212  0.00  0.00    +0.378 HD
ENDBRANCH   6  25
TORSDOF 9
ENDMDL
MODEL 3
REMARK VINA RESULT:      -5.8      6.849      9.248
REMARK  Name = CHEMBL1089539
REMARK                            x       y       z     vdW  Elec       q    Type
REMARK                         _______ _______ _______ _____ _____    ______ ____
ROOT
ATOM      1  C   LIG    1       -1.769 -10.037 -21.336  0.00  0.00    -0.269 A 
ATOM      2  C   LIG    1       -2.275  -9.288 -22.356  0.00  0.00    +0.101 A 
ATOM      3 CL   LIG    1       -3.787  -9.727 -23.087  0.00  0.00    -0.034 Cl
ATOM      4  C   LIG    1       -1.573  -8.160 -22.813  0.00  0.00    -0.216 A 
ATOM      5  C   LIG    1       -1.935  -7.264 -23.855  0.00  0.00    +0.109 A 
ATOM      6  C   LIG    1       -1.137  -6.212 -24.178  0.00  0.00    +0.018 A 
ATOM      7  C   LIG    1        0.064  -5.973 -23.503  0.00  0.00    +0.331 A 
ATOM      8  O   LIG    1        0.846  -4.915 -23.846  0.00  0.00    -0.621 OA
ATOM      9  C   LIG    1        0.450  -6.826 -22.483  0.00  0.00    -0.164 A 
ATOM     10  C   LIG    1       -0.353  -7.893 -22.148  0.00  0.00    +0.012 A 
ATOM     11  S   LIG    1       -0.249  -9.190 -20.940  0.00  0.00    +0.117 S 
ENDROOT
BRANCH   9  12
ATOM     12  N   LIG    1        1.719  -6.590 -21.755  0.00  0.00    +0.061 N 
ATOM     13  O   LIG    1        1.699  -6.115 -20.644  0.00  0.00    -0.160 OA
ATOM     14  O   LIG    1        2.774  -6.874 -22.273  0.00  0.00    -0.161 OA
ENDBRANCH   9  12
BRANCH   1  15
ATOM     15  C   LIG    1       -2.334 -11.237 -20.715  0.00  0.00    +0.560 C 
ATOM     16  O   LIG    1       -2.470 -12.252 -21.368  0.00  0.00    -0.478 OA
BRANCH  15  17
ATOM     17  O   LIG    1       -2.703 -11.214 -19.417  0.00  0.00    -0.349 OA
BRANCH  17  18
ATOM     18  C   LIG    1       -4.105 -11.193 -19.142  0.00  0.00    +0.481 C 
BRANCH  18  19
ATOM     19  O   LIG    1       -4.553 -12.519 -18.851  0.00  0.00    -0.357 OA
BRANCH  19  20
ATOM     20  C   LIG    1       -4.151 -13.056 -17.689  0.00  0.00    +0.458 C 
ATOM     21  O   LIG    1       -4.194 -12.403 -16.673  0.00  0.00    -0.490 OA
BRANCH  20  22
ATOM     22  C   LIG    1       -3.646 -14.476 -17.650  0.00  0.00    +0.099 C 
BRANCH  22  24
ATOM     23  C   LIG    1       -2.001 -15.954 -18.811  0.00  0.00    +0.022 C 
ATOM     24  C   LIG    1       -3.027 -14.835 -19.002  0.00  0.00    +0.030 C 
ENDBRANCH  22  24
ENDBRANCH  20  22
ENDBRANCH  19  20
ENDBRANCH  18  19
ENDBRANCH  17  18
ENDBRANCH  15  17
ENDBRANCH   1  15
BRANCH   6  25
ATOM     25  O   LIG    1       -1.514  -5.374 -25.182  0.00  0.00    -0.478 OA
ATOM     26  H   LIG    1       -0.783  -5.077 -25.741  0.00  0.00    +0.378 HD
ENDBRANCH   6  25
TORSDOF 9
ENDMDL
MODEL 4
REMARK VINA RESULT:      -5.8      1.791      2.777
REMARK  Name = CHEMBL1089539
REMARK                            x       y       z     vdW  Elec       q    Type
REMARK                         _______ _______ _______ _____ _____    ______ ____
ROOT
ATOM      1  C   LIG    1        6.978  -6.901 -20.350  0.00  0.00    -0.269 A 
ATOM      2  C   LIG    1        6.727  -7.020 -19.016  0.00  0.00    +0.101 A 
ATOM      3 CL   LIG    1        6.189  -8.537 -18.365  0.00  0.00    -0.034 Cl
ATOM      4  C   LIG    1        6.904  -5.914 -18.168  0.00  0.00    -0.216 A 
ATOM      5  C   LIG    1        6.696  -5.843 -16.764  0.00  0.00    +0.109 A 
ATOM      6  C   LIG    1        6.914  -4.685 -16.085  0.00  0.00    +0.018 A 
ATOM      7  C   LIG    1        7.350  -3.527 -16.738  0.00  0.00    +0.331 A 
ATOM      8  O   LIG    1        7.560  -2.382 -16.037  0.00  0.00    -0.621 OA
ATOM      9  C   LIG    1        7.563  -3.559 -18.105  0.00  0.00    -0.164 A 
ATOM     10  C   LIG    1        7.345  -4.728 -18.801  0.00  0.00    +0.012 A 
ATOM     11  S   LIG    1        7.496  -5.200 -20.505  0.00  0.00    +0.117 S 
ENDROOT
BRANCH   9  12
ATOM     12  N   LIG    1        8.024  -2.344 -18.816  0.00  0.00    +0.061 N 
ATOM     13  O   LIG    1        9.203  -2.077 -18.855  0.00  0.00    -0.160 OA
ATOM     14  O   LIG    1        7.221  -1.619 -19.356  0.00  0.00    -0.161 OA
ENDBRANCH   9  12
BRANCH   1  15
ATOM     15  C   LIG    1        6.858  -7.918 -21.397  0.00  0.00    +0.560 C 
ATOM     16  O   LIG    1        7.799  -8.147 -22.132  0.00  0.00    -0.478 OA
BRANCH  15  17
ATOM     17  O   LIG    1        5.705  -8.602 -21.545  0.00  0.00    -0.349 OA
BRANCH  17  18
ATOM     18  C   LIG    1        4.504  -7.833 -21.651  0.00  0.00    +0.481 C 
BRANCH  18  19
ATOM     19  O   LIG    1        3.544  -8.320 -20.712  0.00  0.00    -0.357 OA
BRANCH  19  20
ATOM     20  C   LIG    1        2.326  -7.758 -20.740  0.00  0.00    +0.458 C 
ATOM     21  O   LIG    1        2.209  -6.560 -20.628  0.00  0.00    -0.490 OA
BRANCH  20  22
ATOM     22  C   LIG    1        1.102  -8.620 -20.913  0.00  0.00    +0.099 C 
BRANCH  22  24
ATOM     23  C   LIG    1       -1.212  -8.464 -19.984  0.00  0.00    +0.022 C 
ATOM     24  C   LIG    1       -0.153  -7.749 -20.825  0.00  0.00    +0.030 C 
ENDBRANCH  22  24
ENDBRANCH  20  22
ENDBRANCH  19  20
ENDBRANCH  18  19
ENDBRANCH  17  18
ENDBRANCH  15  17
ENDBRANCH   1  15
BRANCH   6  25
ATOM     25  O   LIG    1        6.704  -4.651 -14.741  0.00  0.00    -0.478 OA
ATOM     26  H   LIG    1        6.541  -3.765 -14.391  0.00  0.00    +0.378 HD
ENDBRANCH   6  25
TORSDOF 9
ENDMDL
MODEL 5
REMARK VINA RESULT:      -5.8     10.909     13.506
REMARK  Name = CHEMBL1089539
REMARK                            x       y       z     vdW  Elec       q    Type
REMARK                         _______ _______ _______ _____ _____    ______ ____
ROOT
ATOM      1  C   LIG    1       -7.527  -7.116 -17.429  0.00  0.00    -0.269 A 
ATOM      2  C   LIG    1       -7.535  -8.170 -16.566  0.00  0.00    +0.101 A 
ATOM      3 CL   LIG    1       -8.780  -8.298 -15.363  0.00  0.00    -0.034 Cl
ATOM      4  C   LIG    1       -6.534  -9.154 -16.650  0.00  0.00    -0.216 A 
ATOM      5  C   LIG    1       -6.376 -10.315 -15.847  0.00  0.00    +0.109 A 
ATOM      6  C   LIG    1       -5.343 -11.174 -16.060  0.00  0.00    +0.018 A 
ATOM      7  C   LIG    1       -4.404 -10.948 -17.072  0.00  0.00    +0.331 A 
ATOM      8  O   LIG    1       -3.380 -11.821 -17.264  0.00  0.00    -0.621 OA
ATOM      9  C   LIG    1       -4.526  -9.827 -17.874  0.00  0.00    -0.164 A 
ATOM     10  C   LIG    1       -5.569  -8.952 -17.665  0.00  0.00    +0.012 A 
ATOM     11  S   LIG    1       -6.093  -7.443 -18.440  0.00  0.00    +0.117 S 
ENDROOT
BRANCH   9  12
ATOM     12  N   LIG    1       -3.542  -9.570 -18.950  0.00  0.00    +0.061 N 
ATOM     13  O   LIG    1       -3.643 -10.141 -20.011  0.00  0.00    -0.160 OA
ATOM     14  O   LIG    1       -2.637  -8.789 -18.767  0.00  0.00    -0.161 OA
ENDBRANCH   9  12
BRANCH   1  15
ATOM     15  C   LIG    1       -8.465  -5.995 -17.511  0.00  0.00    +0.560 C 
ATOM     16  O   LIG    1       -9.307  -5.842 -16.647  0.00  0.00    -0.478 OA
BRANCH  15  17
ATOM     17  O   LIG    1       -8.396  -5.132 -18.545  0.00  0.00    -0.349 OA
BRANCH  17  18
ATOM     18  C   LIG    1       -7.347  -4.161 -18.510  0.00  0.00    +0.481 C 
BRANCH  18  19
ATOM     19  O   LIG    1       -7.799  -2.951 -19.124  0.00  0.00    -0.357 OA
BRANCH  19  20
ATOM     20  C   LIG    1       -7.094  -1.839 -18.867  0.00  0.00    +0.458 C 
ATOM     21  O   LIG    1       -5.979  -1.711 -19.316  0.00  0.00    -0.490 OA
BRANCH  20  22
ATOM     22  C   LIG    1       -7.693  -0.746 -18.020  0.00  0.00    +0.099 C 
BRANCH  22  24
ATOM     23  C   LIG    1       -6.407   0.589 -16.346  0.00  0.00    +0.022 C 
ATOM     24  C   LIG    1       -6.671   0.378 -17.838  0.00  0.00    +0.030 C 
ENDBRANCH  22  24
ENDBRANCH  20  22
ENDBRANCH  19  20
ENDBRANCH  18  19
ENDBRANCH  17  18
ENDBRANCH  15  17
ENDBRANCH   1  15
BRANCH   6  25
ATOM     25  O   LIG    1       -5.220 -12.276 -15.272  0.00  0.00    -0.478 OA
ATOM     26  H   LIG    1       -5.686 -12.208 -14.427  0.00  0.00    +0.378 HD
ENDBRANCH   6  25
TORSDOF 9
ENDMDL
MODEL 6
REMARK VINA RESULT:      -5.5      6.500     11.118
REMARK  Name = CHEMBL1089539
REMARK                            x       y       z     vdW  Elec       q    Type
REMARK                         _______ _______ _______ _____ _____    ______ ____
ROOT
ATOM      1  C   LIG    1       -2.856 -11.378 -21.302  0.00  0.00    -0.269 A 
ATOM      2  C   LIG    1       -2.869 -12.481 -20.502  0.00  0.00    +0.101 A 
ATOM      3 CL   LIG    1       -2.167 -13.967 -21.062  0.00  0.00    -0.034 Cl
ATOM      4  C   LIG    1       -3.452 -12.415 -19.225  0.00  0.00    -0.216 A 
ATOM      5  C   LIG    1       -3.561 -13.449 -18.257  0.00  0.00    +0.109 A 
ATOM      6  C   LIG    1       -4.160 -13.220 -17.058  0.00  0.00    +0.018 A 
ATOM      7  C   LIG    1       -4.688 -11.966 -16.734  0.00  0.00    +0.331 A 
ATOM      8  O   LIG    1       -5.283 -11.762 -15.528  0.00  0.00    -0.621 OA
ATOM      9  C   LIG    1       -4.599 -10.935 -17.652  0.00  0.00    -0.164 A 
ATOM     10  C   LIG    1       -3.994 -11.158 -18.869  0.00  0.00    +0.012 A 
ATOM     11  S   LIG    1       -3.668 -10.149 -20.293  0.00  0.00    +0.117 S 
ENDROOT
BRANCH   9  12
ATOM     12  N   LIG    1       -5.152  -9.599 -17.329  0.00  0.00    +0.061 N 
ATOM     13  O   LIG    1       -4.513  -8.604 -17.578  0.00  0.00    -0.160 OA
ATOM     14  O   LIG    1       -6.243  -9.505 -16.816  0.00  0.00    -0.161 OA
ENDBRANCH   9  12
BRANCH   1  15
ATOM     15  C   LIG    1       -2.306 -11.233 -22.651  0.00  0.00    +0.560 C 
ATOM     16  O   LIG    1       -2.810 -11.835 -23.580  0.00  0.00    -0.478 OA
BRANCH  15  17
ATOM     17  O   LIG    1       -1.243 -10.431 -22.864  0.00  0.00    -0.349 OA
BRANCH  17  18
ATOM     18  C   LIG    1       -0.056 -10.718 -22.120  0.00  0.00    +0.481 C 
BRANCH  18  19
ATOM     19  O   LIG    1       -0.013  -9.892 -20.955  0.00  0.00    -0.357 OA
BRANCH  19  20
ATOM     20  C   LIG    1        1.095  -9.159 -20.769  0.00  0.00    +0.458 C 
ATOM     21  O   LIG    1        1.006  -7.995 -20.455  0.00  0.00    -0.490 OA
BRANCH  20  22
ATOM     22  C   LIG    1        2.453  -9.787 -20.951  0.00  0.00    +0.099 C 
BRANCH  22  24
ATOM     23  C   LIG    1        4.491  -8.420 -20.480  0.00  0.00    +0.022 C 
ATOM     24  C   LIG    1        3.397  -9.288 -19.855  0.00  0.00    +0.030 C 
ENDBRANCH  22  24
ENDBRANCH  20  22
ENDBRANCH  19  20
ENDBRANCH  18  19
ENDBRANCH  17  18
ENDBRANCH  15  17
ENDBRANCH   1  15
BRANCH   6  25
ATOM     25  O   LIG    1       -4.249 -14.233 -16.153  0.00  0.00    -0.478 OA
ATOM     26  H   LIG    1       -3.969 -13.988 -15.261  0.00  0.00    +0.378 HD
ENDBRANCH   6  25
TORSDOF 9
ENDMDL
MODEL 7
REMARK VINA RESULT:      -5.4      6.025     10.607
REMARK  Name = CHEMBL1089539
REMARK                            x       y       z     vdW  Elec       q    Type
REMARK                         _______ _______ _______ _____ _____    ______ ____
ROOT
ATOM      1  C   LIG    1       -1.079 -10.097 -22.061  0.00  0.00    -0.269 A 
ATOM      2  C   LIG    1       -1.509  -9.692 -20.833  0.00  0.00    +0.101 A 
ATOM      3 CL   LIG    1       -1.046  -8.134 -20.221  0.00  0.00    -0.034 Cl
ATOM      4  C   LIG    1       -2.326 -10.536 -20.062  0.00  0.00    -0.216 A 
ATOM      5  C   LIG    1       -2.868 -10.293 -18.772  0.00  0.00    +0.109 A 
ATOM      6  C   LIG    1       -3.647 -11.223 -18.157  0.00  0.00    +0.018 A 
ATOM      7  C   LIG    1       -3.943 -12.446 -18.768  0.00  0.00    +0.331 A 
ATOM      8  O   LIG    1       -4.724 -13.359 -18.132  0.00  0.00    -0.621 OA
ATOM      9  C   LIG    1       -3.432 -12.718 -20.025  0.00  0.00    -0.164 A 
ATOM     10  C   LIG    1       -2.643 -11.781 -20.655  0.00  0.00    +0.012 A 
ATOM     11  S   LIG    1       -1.813 -11.715 -22.223  0.00  0.00    +0.117 S 
ENDROOT
BRANCH   9  12
ATOM     12  N   LIG    1       -3.733 -14.007 -20.689  0.00  0.00    +0.061 N 
ATOM     13  O   LIG    1       -3.139 -15.008 -20.362  0.00  0.00    -0.160 OA
ATOM     14  O   LIG    1       -4.573 -14.058 -21.557  0.00  0.00    -0.161 OA
ENDBRANCH   9  12
BRANCH   1  15
ATOM     15  C   LIG    1       -0.231  -9.379 -23.015  0.00  0.00    +0.560 C 
ATOM     16  O   LIG    1       -0.625  -9.179 -24.147  0.00  0.00    -0.478 OA
BRANCH  15  17
ATOM     17  O   LIG    1        0.987  -8.940 -22.637  0.00  0.00    -0.349 OA
BRANCH  17  18
ATOM     18  C   LIG    1        1.324  -7.592 -22.974  0.00  0.00    +0.481 C 
BRANCH  18  19
ATOM     19  O   LIG    1        2.622  -7.284 -22.460  0.00  0.00    -0.357 OA
BRANCH  19  20
ATOM     20  C   LIG    1        2.689  -6.872 -21.185  0.00  0.00    +0.458 C 
ATOM     21  O   LIG    1        1.770  -6.257 -20.698  0.00  0.00    -0.490 OA
BRANCH  20  22
ATOM     22  C   LIG    1        3.911  -7.179 -20.358  0.00  0.00    +0.099 C 
BRANCH  22  24
ATOM     23  C   LIG    1        3.029  -9.484 -19.968  0.00  0.00    +0.022 C 
ATOM     24  C   LIG    1        4.232  -8.672 -20.454  0.00  0.00    +0.030 C 
ENDBRANCH  22  24
ENDBRANCH  20  22
ENDBRANCH  19  20
ENDBRANCH  18  19
ENDBRANCH  17  18
ENDBRANCH  15  17
ENDBRANCH   1  15
BRANCH   6  25
ATOM     25  O   LIG    1       -4.150 -10.958 -16.920  0.00  0.00    -0.478 OA
ATOM     26  H   LIG    1       -3.478 -10.729 -16.264  0.00  0.00    +0.378 HD
ENDBRANCH   6  25
TORSDOF 9
ENDMDL
MODEL 8
REMARK VINA RESULT:      -5.2     10.698     12.723
REMARK  Name = CHEMBL1089539
REMARK                            x       y       z     vdW  Elec       q    Type
REMARK                         _______ _______ _______ _____ _____    ______ ____
ROOT
ATOM      1  C   LIG    1       -2.573 -14.978 -21.115  0.00  0.00    -0.269 A 
ATOM      2  C   LIG    1       -3.034 -15.105 -19.839  0.00  0.00    +0.101 A 
ATOM      3 CL   LIG    1       -3.179 -16.679 -19.121  0.00  0.00    -0.034 Cl
ATOM      4  C   LIG    1       -3.392 -13.961 -19.105  0.00  0.00    -0.216 A 
ATOM      5  C   LIG    1       -3.889 -13.892 -17.776  0.00  0.00    +0.109 A 
ATOM      6  C   LIG    1       -4.191 -12.695 -17.206  0.00  0.00    +0.018 A 
ATOM      7  C   LIG    1       -4.025 -11.493 -17.903  0.00  0.00    +0.331 A 
ATOM      8  O   LIG    1       -4.336 -10.309 -17.312  0.00  0.00    -0.621 OA
ATOM      9  C   LIG    1       -3.544 -11.522 -19.200  0.00  0.00    -0.164 A 
ATOM     10  C   LIG    1       -3.235 -12.730 -19.784  0.00  0.00    +0.012 A 
ATOM     11  S   LIG    1       -2.604 -13.212 -21.373  0.00  0.00    +0.117 S 
ENDROOT
BRANCH   9  12
ATOM     12  N   LIG    1       -3.362 -10.261 -19.955  0.00  0.00    +0.061 N 
ATOM     13  O   LIG    1       -2.501  -9.478 -19.627  0.00  0.00    -0.160 OA
ATOM     14  O   LIG    1       -4.075 -10.014 -20.900  0.00  0.00    -0.161 OA
ENDBRANCH   9  12
BRANCH   1  15
ATOM     15  C   LIG    1       -2.150 -16.028 -22.043  0.00  0.00    +0.560 C 
ATOM     16  O   LIG    1       -1.052 -16.535 -21.927  0.00  0.00    -0.478 OA
BRANCH  15  17
ATOM     17  O   LIG    1       -2.980 -16.434 -23.026  0.00  0.00    -0.349 OA
BRANCH  17  18
ATOM     18  C   LIG    1       -4.341 -16.679 -22.666  0.00  0.00    +0.481 C 
BRANCH  18  19
ATOM     19  O   LIG    1       -5.175 -15.673 -23.246  0.00  0.00    -0.357 OA
BRANCH  19  20
ATOM     20  C   LIG    1       -6.141 -16.089 -24.079  0.00  0.00    +0.458 C 
ATOM     21  O   LIG    1       -5.960 -17.054 -24.783  0.00  0.00    -0.490 OA
BRANCH  20  22
ATOM     22  C   LIG    1       -7.455 -15.353 -24.135  0.00  0.00    +0.099 C 
BRANCH  22  24
ATOM     23  C   LIG    1       -7.778 -13.139 -23.025  0.00  0.00    +0.022 C 
ATOM     24  C   LIG    1       -7.195 -13.850 -24.247  0.00  0.00    +0.030 C 
ENDBRANCH  22  24
ENDBRANCH  20  22
ENDBRANCH  19  20
ENDBRANCH  18  19
ENDBRANCH  17  18
ENDBRANCH  15  17
ENDBRANCH   1  15
BRANCH   6  25
ATOM     25  O   LIG    1       -4.665 -12.665 -15.931  0.00  0.00    -0.478 OA
ATOM     26  H   LIG    1       -3.976 -12.715 -15.255  0.00  0.00    +0.378 HD
ENDBRANCH   6  25
TORSDOF 9
ENDMDL
MODEL 9
REMARK VINA RESULT:      -5.1      4.915     10.160
REMARK  Name = CHEMBL1089539
REMARK                            x       y       z     vdW  Elec       q    Type
REMARK                         _______ _______ _______ _____ _____    ______ ____
ROOT
ATOM      1  C   LIG    1       -0.449  -8.056 -21.416  0.00  0.00    -0.269 A 
ATOM      2  C   LIG    1       -0.918  -8.916 -22.364  0.00  0.00    +0.101 A 
ATOM      3 CL   LIG    1       -0.325  -8.821 -23.992  0.00  0.00    -0.034 Cl
ATOM      4  C   LIG    1       -1.882  -9.879 -22.020  0.00  0.00    -0.216 A 
ATOM      5  C   LIG    1       -2.487 -10.852 -22.861  0.00  0.00    +0.109 A 
ATOM      6  C   LIG    1       -3.412 -11.719 -22.369  0.00  0.00    +0.018 A 
ATOM      7  C   LIG    1       -3.802 -11.685 -21.026  0.00  0.00    +0.331 A 
ATOM      8  O   LIG    1       -4.731 -12.561 -20.559  0.00  0.00    -0.621 OA
ATOM      9  C   LIG    1       -3.235 -10.750 -20.178  0.00  0.00    -0.164 A 
ATOM     10  C   LIG    1       -2.297  -9.869 -20.668  0.00  0.00    +0.012 A 
ATOM     11  S   LIG    1       -1.340  -8.555 -19.952  0.00  0.00    +0.117 S 
ENDROOT
BRANCH   9  12
ATOM     12  N   LIG    1       -3.635 -10.697 -18.753  0.00  0.00    +0.061 N 
ATOM     13  O   LIG    1       -4.415  -9.855 -18.375  0.00  0.00    -0.160 OA
ATOM     14  O   LIG    1       -3.180 -11.497 -17.968  0.00  0.00    -0.161 OA
ENDBRANCH   9  12
BRANCH   1  15
ATOM     15  C   LIG    1        0.545  -6.990 -21.561  0.00  0.00    +0.560 C 
ATOM     16  O   LIG    1        0.489  -6.231 -22.509  0.00  0.00    -0.478 OA
BRANCH  15  17
ATOM     17  O   LIG    1        1.522  -6.850 -20.641  0.00  0.00    -0.349 OA
BRANCH  17  18
ATOM     18  C   LIG    1        2.701  -7.637 -20.823  0.00  0.00    +0.481 C 
BRANCH  18  19
ATOM     19  O   LIG    1        3.847  -6.871 -20.445  0.00  0.00    -0.357 OA
BRANCH  19  20
ATOM     20  C   LIG    1        4.655  -7.403 -19.516  0.00  0.00    +0.458 C 
ATOM     21  O   LIG    1        4.562  -8.574 -19.231  0.00  0.00    -0.490 OA
BRANCH  20  22
ATOM     22  C   LIG    1        5.682  -6.541 -18.828  0.00  0.00    +0.099 C 
BRANCH  22  24
ATOM     23  C   LIG    1        6.671  -5.942 -16.612  0.00  0.00    +0.022 C 
ATOM     24  C   LIG    1        5.783  -6.943 -17.355  0.00  0.00    +0.030 C 
ENDBRANCH  22  24
ENDBRANCH  20  22
ENDBRANCH  19  20
ENDBRANCH  18  19
ENDBRANCH  17  18
ENDBRANCH  15  17
ENDBRANCH   1  15
BRANCH   6  25
ATOM     25  O   LIG    1       -3.972 -12.638 -23.201  0.00  0.00    -0.478 OA
ATOM     26  H   LIG    1       -4.698 -13.137 -22.803  0.00  0.00    +0.378 HD
ENDBRANCH   6  25
TORSDOF 9
ENDMDL
