MODEL 1
REMARK VINA RESULT:      -5.8      0.000      0.000
REMARK  Name = CHEMBL166486
REMARK                            x       y       z     vdW  Elec       q    Type
REMARK                         _______ _______ _______ _____ _____    ______ ____
ROOT
ATOM      1  C   LIG    1       -4.109 -10.494 -18.745  0.00  0.00    +0.162 A 
ATOM      2  C   LIG    1       -3.464 -11.661 -19.180  0.00  0.00    -0.089 A 
ATOM      3  C   LIG    1       -3.519 -12.821 -18.395  0.00  0.00    +0.094 A 
ATOM      4  C   LIG    1       -4.207 -12.807 -17.199  0.00  0.00    +0.090 A 
ATOM      5  C   LIG    1       -4.845 -11.642 -16.773  0.00  0.00    +0.176 A 
ATOM      6  C   LIG    1       -4.792 -10.492 -17.551  0.00  0.00    -0.069 A 
ENDROOT
BRANCH   6   7
ATOM      7  N   LIG    1       -5.471  -9.259 -17.092  0.00  0.00    +0.034 N 
ATOM      8  O   LIG    1       -4.947  -8.182 -17.260  0.00  0.00    -0.128 OA
ATOM      9  O   LIG    1       -6.549  -9.329 -16.548  0.00  0.00    -0.154 OA
ENDBRANCH   6   7
BRANCH   2  10
ATOM     10  C   LIG    1       -2.737 -11.668 -20.452  0.00  0.00    +0.231 C 
ATOM     11  C   LIG    1       -3.334 -12.174 -21.584  0.00  0.00    +0.024 C 
BRANCH  11  12
ATOM     12  C   LIG    1       -4.714 -12.557 -21.556  0.00  0.00    +0.238 C 
ATOM     13  N   LIG    1       -5.808 -12.860 -21.534  0.00  0.00    -0.369 NA
ENDBRANCH  11  12
BRANCH  11  14
ATOM     14  C   LIG    1       -2.576 -12.316 -22.791  0.00  0.00    +0.249 C 
ATOM     15  N   LIG    1       -1.975 -12.428 -23.748  0.00  0.00    -0.371 NA
ENDBRANCH  11  14
ENDBRANCH   2  10
BRANCH   4  16
ATOM     16  O   LIG    1       -4.262 -13.930 -16.434  0.00  0.00    -0.468 OA
ATOM     17  H   LIG    1       -3.482 -14.496 -16.509  0.00  0.00    +0.400 HD
ENDBRANCH   4  16
BRANCH   5  18
ATOM     18  O   LIG    1       -5.521 -11.632 -15.596  0.00  0.00    -0.458 OA
ATOM     19  H   LIG    1       -6.341 -11.120 -15.617  0.00  0.00    +0.409 HD
ENDBRANCH   5  18
TORSDOF 6
ENDMDL
MODEL 2
REMARK VINA RESULT:      -5.6      1.416      1.856
REMARK  Name = CHEMBL166486
REMARK                            x       y       z     vdW  Elec       q    Type
REMARK                         _______ _______ _______ _____ _____    ______ ____
ROOT
ATOM      1  C   LIG    1       -4.432 -10.688 -18.896  0.00  0.00    +0.162 A 
ATOM      2  C   LIG    1       -3.888 -11.870 -19.417  0.00  0.00    -0.089 A 
ATOM      3  C   LIG    1       -3.755 -12.998 -18.594  0.00  0.00    +0.094 A 
ATOM      4  C   LIG    1       -4.161 -12.937 -17.277  0.00  0.00    +0.090 A 
ATOM      5  C   LIG    1       -4.702 -11.756 -16.766  0.00  0.00    +0.176 A 
ATOM      6  C   LIG    1       -4.834 -10.639 -17.581  0.00  0.00    -0.069 A 
ENDROOT
BRANCH   6   7
ATOM      7  N   LIG    1       -5.407  -9.389 -17.031  0.00  0.00    +0.034 N 
ATOM      8  O   LIG    1       -4.872  -8.328 -17.258  0.00  0.00    -0.128 OA
ATOM      9  O   LIG    1       -6.409  -9.429 -16.355  0.00  0.00    -0.154 OA
ENDBRANCH   6   7
BRANCH   2  10
ATOM     10  C   LIG    1       -3.460 -11.929 -20.817  0.00  0.00    +0.231 C 
ATOM     11  C   LIG    1       -2.495 -11.063 -21.279  0.00  0.00    +0.024 C 
BRANCH  11  12
ATOM     12  C   LIG    1       -1.804 -10.206 -20.363  0.00  0.00    +0.238 C 
ATOM     13  N   LIG    1       -1.256  -9.526 -19.636  0.00  0.00    -0.369 NA
ENDBRANCH  11  12
BRANCH  11  14
ATOM     14  C   LIG    1       -2.181 -11.020 -22.676  0.00  0.00    +0.249 C 
ATOM     15  N   LIG    1       -1.932 -10.987 -23.784  0.00  0.00    -0.371 NA
ENDBRANCH  11  14
ENDBRANCH   2  10
BRANCH   4  16
ATOM     16  O   LIG    1       -4.035 -14.028 -16.475  0.00  0.00    -0.468 OA
ATOM     17  H   LIG    1       -3.889 -13.817 -15.543  0.00  0.00    +0.400 HD
ENDBRANCH   4  16
BRANCH   5  18
ATOM     18  O   LIG    1       -5.100 -11.700 -15.470  0.00  0.00    -0.458 OA
ATOM     19  H   LIG    1       -6.060 -11.724 -15.352  0.00  0.00    +0.409 HD
ENDBRANCH   5  18
TORSDOF 6
ENDMDL
MODEL 3
REMARK VINA RESULT:      -5.5      1.863      3.228
REMARK  Name = CHEMBL166486
REMARK                            x       y       z     vdW  Elec       q    Type
REMARK                         _______ _______ _______ _____ _____    ______ ____
ROOT
ATOM      1  C   LIG    1       -3.300 -11.603 -18.744  0.00  0.00    +0.162 A 
ATOM      2  C   LIG    1       -3.406 -10.239 -19.051  0.00  0.00    -0.089 A 
ATOM      3  C   LIG    1       -4.229  -9.412 -18.273  0.00  0.00    +0.094 A 
ATOM      4  C   LIG    1       -4.928  -9.946 -17.210  0.00  0.00    +0.090 A 
ATOM      5  C   LIG    1       -4.816 -11.304 -16.911  0.00  0.00    +0.176 A 
ATOM      6  C   LIG    1       -4.001 -12.124 -17.681  0.00  0.00    -0.069 A 
ENDROOT
BRANCH   6   7
ATOM      7  N   LIG    1       -3.888 -13.565 -17.358  0.00  0.00    +0.034 N 
ATOM      8  O   LIG    1       -3.864 -13.925 -16.204  0.00  0.00    -0.128 OA
ATOM      9  O   LIG    1       -3.819 -14.380 -18.248  0.00  0.00    -0.154 OA
ENDBRANCH   6   7
BRANCH   2  10
ATOM     10  C   LIG    1       -2.660  -9.679 -20.181  0.00  0.00    +0.231 C 
ATOM     11  C   LIG    1       -2.947 -10.084 -21.465  0.00  0.00    +0.024 C 
BRANCH  11  12
ATOM     12  C   LIG    1       -4.069 -10.939 -21.712  0.00  0.00    +0.238 C 
ATOM     13  N   LIG    1       -4.959 -11.617 -21.909  0.00  0.00    -0.369 NA
ENDBRANCH  11  12
BRANCH  11  14
ATOM     14  C   LIG    1       -2.124  -9.649 -22.553  0.00  0.00    +0.249 C 
ATOM     15  N   LIG    1       -1.471  -9.305 -23.417  0.00  0.00    -0.371 NA
ENDBRANCH  11  14
ENDBRANCH   2  10
BRANCH   4  16
ATOM     16  O   LIG    1       -5.727  -9.147 -16.452  0.00  0.00    -0.468 OA
ATOM     17  H   LIG    1       -6.653  -9.423 -16.431  0.00  0.00    +0.400 HD
ENDBRANCH   4  16
BRANCH   5  18
ATOM     18  O   LIG    1       -5.505 -11.825 -15.864  0.00  0.00    -0.458 OA
ATOM     19  H   LIG    1       -6.213 -11.254 -15.535  0.00  0.00    +0.409 HD
ENDBRANCH   5  18
TORSDOF 6
ENDMDL
MODEL 4
REMARK VINA RESULT:      -5.2      2.460      3.926
REMARK  Name = CHEMBL166486
REMARK                            x       y       z     vdW  Elec       q    Type
REMARK                         _______ _______ _______ _____ _____    ______ ____
ROOT
ATOM      1  C   LIG    1       -3.635 -12.382 -19.569  0.00  0.00    +0.162 A 
ATOM      2  C   LIG    1       -3.896 -11.021 -19.780  0.00  0.00    -0.089 A 
ATOM      3  C   LIG    1       -4.312 -10.216 -18.709  0.00  0.00    +0.094 A 
ATOM      4  C   LIG    1       -4.460 -10.770 -17.454  0.00  0.00    +0.090 A 
ATOM      5  C   LIG    1       -4.198 -12.125 -17.252  0.00  0.00    +0.176 A 
ATOM      6  C   LIG    1       -3.787 -12.923 -18.313  0.00  0.00    -0.069 A 
ENDROOT
BRANCH   6   7
ATOM      7  N   LIG    1       -3.512 -14.361 -18.091  0.00  0.00    +0.034 N 
ATOM      8  O   LIG    1       -2.682 -14.928 -18.764  0.00  0.00    -0.128 OA
ATOM      9  O   LIG    1       -4.118 -14.968 -17.239  0.00  0.00    -0.154 OA
ENDBRANCH   6   7
BRANCH   2  10
ATOM     10  C   LIG    1       -3.735 -10.439 -21.116  0.00  0.00    +0.231 C 
ATOM     11  C   LIG    1       -2.599  -9.725 -21.423  0.00  0.00    +0.024 C 
BRANCH  11  12
ATOM     12  C   LIG    1       -1.513  -9.671 -20.492  0.00  0.00    +0.238 C 
ATOM     13  N   LIG    1       -0.651  -9.630 -19.753  0.00  0.00    -0.369 NA
ENDBRANCH  11  12
BRANCH  11  14
ATOM     14  C   LIG    1       -2.505  -9.035 -22.675  0.00  0.00    +0.249 C 
ATOM     15  N   LIG    1       -2.430  -8.487 -23.667  0.00  0.00    -0.371 NA
ENDBRANCH  11  14
ENDBRANCH   2  10
BRANCH   4  16
ATOM     16  O   LIG    1       -4.863  -9.993 -16.413  0.00  0.00    -0.468 OA
ATOM     17  H   LIG    1       -5.521  -9.326 -16.650  0.00  0.00    +0.400 HD
ENDBRANCH   4  16
BRANCH   5  18
ATOM     18  O   LIG    1       -4.346 -12.666 -16.016  0.00  0.00    -0.458 OA
ATOM     19  H   LIG    1       -3.517 -12.757 -15.525  0.00  0.00    +0.409 HD
ENDBRANCH   5  18
TORSDOF 6
ENDMDL
MODEL 5
REMARK VINA RESULT:      -5.2     11.892     13.064
REMARK  Name = CHEMBL166486
REMARK                            x       y       z     vdW  Elec       q    Type
REMARK                         _______ _______ _______ _____ _____    ______ ____
ROOT
ATOM      1  C   LIG    1        6.914  -5.471 -16.996  0.00  0.00    +0.162 A 
ATOM      2  C   LIG    1        7.380  -6.000 -18.208  0.00  0.00    -0.089 A 
ATOM      3  C   LIG    1        7.788  -5.135 -19.234  0.00  0.00    +0.094 A 
ATOM      4  C   LIG    1        7.728  -3.770 -19.044  0.00  0.00    +0.090 A 
ATOM      5  C   LIG    1        7.263  -3.252 -17.835  0.00  0.00    +0.176 A 
ATOM      6  C   LIG    1        6.859  -4.108 -16.818  0.00  0.00    -0.069 A 
ENDROOT
BRANCH   6   7
ATOM      7  N   LIG    1        6.365  -3.551 -15.537  0.00  0.00    +0.034 N 
ATOM      8  O   LIG    1        6.780  -3.989 -14.489  0.00  0.00    -0.128 OA
ATOM      9  O   LIG    1        5.547  -2.661 -15.541  0.00  0.00    -0.154 OA
ENDBRANCH   6   7
BRANCH   2  10
ATOM     10  C   LIG    1        7.442  -7.451 -18.403  0.00  0.00    +0.231 C 
ATOM     11  C   LIG    1        6.360  -8.123 -18.924  0.00  0.00    +0.024 C 
BRANCH  11  12
ATOM     12  C   LIG    1        5.230  -7.391 -19.412  0.00  0.00    +0.238 C 
ATOM     13  N   LIG    1        4.334  -6.811 -19.800  0.00  0.00    -0.369 NA
ENDBRANCH  11  12
BRANCH  11  14
ATOM     14  C   LIG    1        6.365  -9.554 -18.979  0.00  0.00    +0.249 C 
ATOM     15  N   LIG    1        6.368 -10.689 -19.023  0.00  0.00    -0.371 NA
ENDBRANCH  11  14
ENDBRANCH   2  10
BRANCH   4  16
ATOM     16  O   LIG    1        8.123  -2.928 -20.036  0.00  0.00    -0.468 OA
ATOM     17  H   LIG    1        8.437  -3.377 -20.833  0.00  0.00    +0.400 HD
ENDBRANCH   4  16
BRANCH   5  18
ATOM     18  O   LIG    1        7.206  -1.909 -17.651  0.00  0.00    -0.458 OA
ATOM     19  H   LIG    1        7.935  -1.424 -18.063  0.00  0.00    +0.409 HD
ENDBRANCH   5  18
TORSDOF 6
ENDMDL
MODEL 6
REMARK VINA RESULT:      -4.8      4.046      5.101
REMARK  Name = CHEMBL166486
REMARK                            x       y       z     vdW  Elec       q    Type
REMARK                         _______ _______ _______ _____ _____    ______ ____
ROOT
ATOM      1  C   LIG    1       -2.297  -9.536 -19.407  0.00  0.00    +0.162 A 
ATOM      2  C   LIG    1       -1.800  -9.100 -20.644  0.00  0.00    -0.089 A 
ATOM      3  C   LIG    1       -2.256  -9.699 -21.827  0.00  0.00    +0.094 A 
ATOM      4  C   LIG    1       -3.190 -10.712 -21.767  0.00  0.00    +0.090 A 
ATOM      5  C   LIG    1       -3.679 -11.140 -20.533  0.00  0.00    +0.176 A 
ATOM      6  C   LIG    1       -3.228 -10.547 -19.359  0.00  0.00    -0.069 A 
ENDROOT
BRANCH   6   7
ATOM      7  N   LIG    1       -3.751 -11.008 -18.053  0.00  0.00    +0.034 N 
ATOM      8  O   LIG    1       -3.510 -12.128 -17.666  0.00  0.00    -0.128 OA
ATOM      9  O   LIG    1       -4.420 -10.265 -17.373  0.00  0.00    -0.154 OA
ENDBRANCH   6   7
BRANCH   2  10
ATOM     10  C   LIG    1       -0.809  -8.022 -20.700  0.00  0.00    +0.231 C 
ATOM     11  C   LIG    1        0.520  -8.319 -20.903  0.00  0.00    +0.024 C 
BRANCH  11  12
ATOM     12  C   LIG    1        0.916  -9.661 -21.206  0.00  0.00    +0.238 C 
ATOM     13  N   LIG    1        1.231 -10.726 -21.445  0.00  0.00    -0.369 NA
ENDBRANCH  11  12
BRANCH  11  14
ATOM     14  C   LIG    1        1.505  -7.284 -20.813  0.00  0.00    +0.249 C 
ATOM     15  N   LIG    1        2.288  -6.463 -20.742  0.00  0.00    -0.371 NA
ENDBRANCH  11  14
ENDBRANCH   2  10
BRANCH   4  16
ATOM     16  O   LIG    1       -3.635 -11.295 -22.913  0.00  0.00    -0.468 OA
ATOM     17  H   LIG    1       -3.370 -10.831 -23.719  0.00  0.00    +0.400 HD
ENDBRANCH   4  16
BRANCH   5  18
ATOM     18  O   LIG    1       -4.599 -12.137 -20.478  0.00  0.00    -0.458 OA
ATOM     19  H   LIG    1       -5.482 -11.874 -20.771  0.00  0.00    +0.409 HD
ENDBRANCH   5  18
TORSDOF 6
ENDMDL
MODEL 7
REMARK VINA RESULT:      -4.8      2.932      3.354
REMARK  Name = CHEMBL166486
REMARK                            x       y       z     vdW  Elec       q    Type
REMARK                         _______ _______ _______ _____ _____    ______ ____
ROOT
ATOM      1  C   LIG    1       -3.120 -12.811 -19.468  0.00  0.00    +0.162 A 
ATOM      2  C   LIG    1       -3.337 -13.936 -18.661  0.00  0.00    -0.089 A 
ATOM      3  C   LIG    1       -3.974 -13.791 -17.419  0.00  0.00    +0.094 A 
ATOM      4  C   LIG    1       -4.383 -12.542 -17.002  0.00  0.00    +0.090 A 
ATOM      5  C   LIG    1       -4.164 -11.427 -17.811  0.00  0.00    +0.176 A 
ATOM      6  C   LIG    1       -3.533 -11.570 -19.041  0.00  0.00    -0.069 A 
ENDROOT
BRANCH   6   7
ATOM      7  N   LIG    1       -3.302 -10.382 -19.894  0.00  0.00    +0.034 N 
ATOM      8  O   LIG    1       -2.667  -9.445 -19.467  0.00  0.00    -0.128 OA
ATOM      9  O   LIG    1       -3.750 -10.347 -21.017  0.00  0.00    -0.154 OA
ENDBRANCH   6   7
BRANCH   2  10
ATOM     10  C   LIG    1       -2.901 -15.261 -19.112  0.00  0.00    +0.231 C 
ATOM     11  C   LIG    1       -3.295 -15.733 -20.343  0.00  0.00    +0.024 C 
BRANCH  11  12
ATOM     12  C   LIG    1       -4.008 -14.877 -21.244  0.00  0.00    +0.238 C 
ATOM     13  N   LIG    1       -4.572 -14.199 -21.959  0.00  0.00    -0.369 NA
ENDBRANCH  11  12
BRANCH  11  14
ATOM     14  C   LIG    1       -2.992 -17.080 -20.723  0.00  0.00    +0.249 C 
ATOM     15  N   LIG    1       -2.751 -18.148 -21.026  0.00  0.00    -0.371 NA
ENDBRANCH  11  14
ENDBRANCH   2  10
BRANCH   4  16
ATOM     16  O   LIG    1       -5.002 -12.396 -15.799  0.00  0.00    -0.468 OA
ATOM     17  H   LIG    1       -5.823 -12.900 -15.715  0.00  0.00    +0.400 HD
ENDBRANCH   4  16
BRANCH   5  18
ATOM     18  O   LIG    1       -4.568 -10.199 -17.396  0.00  0.00    -0.458 OA
ATOM     19  H   LIG    1       -4.988 -10.197 -16.525  0.00  0.00    +0.409 HD
ENDBRANCH   5  18
TORSDOF 6
ENDMDL
MODEL 8
REMARK VINA RESULT:      -4.6      4.192      5.953
REMARK  Name = CHEMBL166486
REMARK                            x       y       z     vdW  Elec       q    Type
REMARK                         _______ _______ _______ _____ _____    ______ ____
ROOT
ATOM      1  C   LIG    1       -1.804 -10.156 -20.525  0.00  0.00    +0.162 A 
ATOM      2  C   LIG    1       -2.956 -10.947 -20.634  0.00  0.00    -0.089 A 
ATOM      3  C   LIG    1       -3.837 -10.751 -21.707  0.00  0.00    +0.094 A 
ATOM      4  C   LIG    1       -3.565  -9.780 -22.648  0.00  0.00    +0.090 A 
ATOM      5  C   LIG    1       -2.416  -8.996 -22.533  0.00  0.00    +0.176 A 
ATOM      6  C   LIG    1       -1.542  -9.190 -21.470  0.00  0.00    -0.069 A 
ENDROOT
BRANCH   6   7
ATOM      7  N   LIG    1       -0.326  -8.354 -21.353  0.00  0.00    +0.034 N 
ATOM      8  O   LIG    1       -0.158  -7.665 -20.373  0.00  0.00    -0.128 OA
ATOM      9  O   LIG    1        0.498  -8.358 -22.238  0.00  0.00    -0.154 OA
ENDBRANCH   6   7
BRANCH   2  10
ATOM     10  C   LIG    1       -3.238 -11.978 -19.631  0.00  0.00    +0.231 C 
ATOM     11  C   LIG    1       -3.779 -11.626 -18.416  0.00  0.00    +0.024 C 
BRANCH  11  12
ATOM     12  C   LIG    1       -4.202 -10.278 -18.184  0.00  0.00    +0.238 C 
ATOM     13  N   LIG    1       -4.538  -9.209 -18.000  0.00  0.00    -0.369 NA
ENDBRANCH  11  12
BRANCH  11  14
ATOM     14  C   LIG    1       -3.919 -12.609 -17.384  0.00  0.00    +0.249 C 
ATOM     15  N   LIG    1       -4.031 -13.389 -16.565  0.00  0.00    -0.371 NA
ENDBRANCH  11  14
ENDBRANCH   2  10
BRANCH   4  16
ATOM     16  O   LIG    1       -4.417  -9.586 -23.691  0.00  0.00    -0.468 OA
ATOM     17  H   LIG    1       -5.349  -9.553 -23.436  0.00  0.00    +0.400 HD
ENDBRANCH   4  16
BRANCH   5  18
ATOM     18  O   LIG    1       -2.152  -8.042 -23.461  0.00  0.00    -0.458 OA
ATOM     19  H   LIG    1       -2.641  -8.151 -24.288  0.00  0.00    +0.409 HD
ENDBRANCH   5  18
TORSDOF 6
ENDMDL
MODEL 9
REMARK VINA RESULT:      -4.6     12.044     13.131
REMARK  Name = CHEMBL166486
REMARK                            x       y       z     vdW  Elec       q    Type
REMARK                         _______ _______ _______ _____ _____    ______ ____
ROOT
ATOM      1  C   LIG    1        7.627  -5.111 -18.710  0.00  0.00    +0.162 A 
ATOM      2  C   LIG    1        7.284  -6.161 -17.847  0.00  0.00    -0.089 A 
ATOM      3  C   LIG    1        6.820  -5.877 -16.555  0.00  0.00    +0.094 A 
ATOM      4  C   LIG    1        6.703  -4.566 -16.141  0.00  0.00    +0.090 A 
ATOM      5  C   LIG    1        7.047  -3.527 -17.007  0.00  0.00    +0.176 A 
ATOM      6  C   LIG    1        7.506  -3.807 -18.287  0.00  0.00    -0.069 A 
ENDROOT
BRANCH   6   7
ATOM      7  N   LIG    1        7.870  -2.699 -19.200  0.00  0.00    +0.034 N 
ATOM      8  O   LIG    1        8.890  -2.760 -19.847  0.00  0.00    -0.128 OA
ATOM      9  O   LIG    1        7.149  -1.733 -19.296  0.00  0.00    -0.154 OA
ENDBRANCH   6   7
BRANCH   2  10
ATOM     10  C   LIG    1        7.408  -7.551 -18.294  0.00  0.00    +0.231 C 
ATOM     11  C   LIG    1        6.384  -8.143 -18.997  0.00  0.00    +0.024 C 
BRANCH  11  12
ATOM     12  C   LIG    1        5.260  -7.362 -19.418  0.00  0.00    +0.238 C 
ATOM     13  N   LIG    1        4.368  -6.744 -19.753  0.00  0.00    -0.369 NA
ENDBRANCH  11  12
BRANCH  11  14
ATOM     14  C   LIG    1        6.442  -9.540 -19.306  0.00  0.00    +0.249 C 
ATOM     15  N   LIG    1        6.488 -10.649 -19.551  0.00  0.00    -0.371 NA
ENDBRANCH  11  14
ENDBRANCH   2  10
BRANCH   4  16
ATOM     16  O   LIG    1        6.253  -4.286 -14.889  0.00  0.00    -0.468 OA
ATOM     17  H   LIG    1        5.721  -4.991 -14.495  0.00  0.00    +0.400 HD
ENDBRANCH   4  16
BRANCH   5  18
ATOM     18  O   LIG    1        6.930  -2.238 -16.596  0.00  0.00    -0.458 OA
ATOM     19  H   LIG    1        7.648  -1.663 -16.896  0.00  0.00    +0.409 HD
ENDBRANCH   5  18
TORSDOF 6
ENDMDL
