MODEL 1
REMARK VINA RESULT:      -7.8      0.000      0.000
REMARK  Name = CHEMBL169926
REMARK                            x       y       z     vdW  Elec       q    Type
REMARK                         _______ _______ _______ _____ _____    ______ ____
ROOT
ATOM      1  C   LIG    1       -3.500 -14.050 -18.436  0.00  0.00    -0.219 A 
ATOM      2  C   LIG    1       -3.231 -13.017 -19.343  0.00  0.00    +0.169 A 
ATOM      3  C   LIG    1       -3.554 -11.719 -19.021  0.00  0.00    -0.198 A 
ATOM      4  C   LIG    1       -4.146 -11.429 -17.799  0.00  0.00    +0.305 A 
ATOM      5  O   LIG    1       -4.463 -10.145 -17.486  0.00  0.00    -0.606 OA
ATOM      6  C   LIG    1       -4.417 -12.451 -16.890  0.00  0.00    -0.020 A 
ATOM      7  C   LIG    1       -4.102 -13.758 -17.206  0.00  0.00    +0.085 A 
ENDROOT
BRANCH   3   8
ATOM      8  N   LIG    1       -3.269 -10.627 -19.980  0.00  0.00    +0.069 N 
ATOM      9  O   LIG    1       -2.313  -9.908 -19.811  0.00  0.00    -0.155 OA
ATOM     10  O   LIG    1       -3.994 -10.456 -20.933  0.00  0.00    -0.249 OA
ENDBRANCH   3   8
BRANCH   1  12
ATOM     11  C   LIG    1       -3.507 -15.945 -19.981  0.00  0.00    -0.185 C 
ATOM     12  C   LIG    1       -3.157 -15.438 -18.777  0.00  0.00    +0.193 C 
BRANCH  11  13
ATOM     13  C   LIG    1       -3.176 -17.283 -20.310  0.00  0.00    +0.428 C 
ATOM     14  O   LIG    1       -2.022 -17.663 -20.225  0.00  0.00    -0.484 OA
BRANCH  13  18
ATOM     15  C   LIG    1       -6.208 -19.971 -21.588  0.00  0.00    +0.025 A 
ATOM     16  C   LIG    1       -5.494 -20.237 -20.432  0.00  0.00    -0.010 A 
ATOM     17  C   LIG    1       -4.509 -19.369 -20.012  0.00  0.00    +0.063 A 
ATOM     18  C   LIG    1       -4.232 -18.219 -20.754  0.00  0.00    -0.152 A 
ATOM     19  C   LIG    1       -4.956 -17.957 -21.919  0.00  0.00    +0.058 A 
ATOM     20  C   LIG    1       -5.939 -18.833 -22.328  0.00  0.00    -0.007 A 
ENDBRANCH  13  18
ENDBRANCH  11  13
ENDBRANCH   1  12
BRANCH   6  21
ATOM     21  O   LIG    1       -4.996 -12.163 -15.694  0.00  0.00    -0.480 OA
ATOM     22  H   LIG    1       -5.861 -12.576 -15.565  0.00  0.00    +0.370 HD
ENDBRANCH   6  21
TORSDOF 5
ENDMDL
MODEL 2
REMARK VINA RESULT:      -7.8     13.426     15.094
REMARK  Name = CHEMBL169926
REMARK                            x       y       z     vdW  Elec       q    Type
REMARK                         _______ _______ _______ _____ _____    ______ ____
ROOT
ATOM      1  C   LIG    1       -4.420  -0.447 -19.857  0.00  0.00    -0.219 A 
ATOM      2  C   LIG    1       -5.134  -1.647 -19.974  0.00  0.00    +0.169 A 
ATOM      3  C   LIG    1       -6.331  -1.802 -19.314  0.00  0.00    -0.198 A 
ATOM      4  C   LIG    1       -6.836  -0.771 -18.531  0.00  0.00    +0.305 A 
ATOM      5  O   LIG    1       -8.018  -0.930 -17.882  0.00  0.00    -0.606 OA
ATOM      6  C   LIG    1       -6.133   0.428 -18.410  0.00  0.00    -0.020 A 
ATOM      7  C   LIG    1       -4.928   0.590 -19.064  0.00  0.00    +0.085 A 
ENDROOT
BRANCH   3   8
ATOM      8  N   LIG    1       -7.084  -3.070 -19.437  0.00  0.00    +0.069 N 
ATOM      9  O   LIG    1       -7.838  -3.238 -20.366  0.00  0.00    -0.155 OA
ATOM     10  O   LIG    1       -6.945  -3.939 -18.608  0.00  0.00    -0.249 OA
ENDBRANCH   3   8
BRANCH   1  12
ATOM     11  C   LIG    1       -2.976   0.748 -21.426  0.00  0.00    -0.185 C 
ATOM     12  C   LIG    1       -3.141  -0.278 -20.560  0.00  0.00    +0.193 C 
BRANCH  11  13
ATOM     13  C   LIG    1       -1.742   0.910 -22.104  0.00  0.00    +0.428 C 
ATOM     14  O   LIG    1       -1.044   1.882 -21.874  0.00  0.00    -0.484 OA
BRANCH  13  18
ATOM     15  C   LIG    1       -0.473  -1.991 -24.937  0.00  0.00    +0.025 A 
ATOM     16  C   LIG    1        0.241  -1.813 -23.765  0.00  0.00    -0.010 A 
ATOM     17  C   LIG    1       -0.165  -0.873 -22.842  0.00  0.00    +0.063 A 
ATOM     18  C   LIG    1       -1.300  -0.100 -23.090  0.00  0.00    -0.152 A 
ATOM     19  C   LIG    1       -2.017  -0.284 -24.274  0.00  0.00    +0.058 A 
ATOM     20  C   LIG    1       -1.600  -1.227 -25.190  0.00  0.00    -0.007 A 
ENDBRANCH  13  18
ENDBRANCH  11  13
ENDBRANCH   1  12
BRANCH   6  21
ATOM     21  O   LIG    1       -6.631   1.434 -17.644  0.00  0.00    -0.480 OA
ATOM     22  H   LIG    1       -7.325   1.156 -17.030  0.00  0.00    +0.370 HD
ENDBRANCH   6  21
TORSDOF 5
ENDMDL
MODEL 3
REMARK VINA RESULT:      -7.1      5.042      8.521
REMARK  Name = CHEMBL169926
REMARK                            x       y       z     vdW  Elec       q    Type
REMARK                         _______ _______ _______ _____ _____    ______ ____
ROOT
ATOM      1  C   LIG    1       -3.345 -10.164 -19.081  0.00  0.00    -0.219 A 
ATOM      2  C   LIG    1       -3.266 -11.529 -18.779  0.00  0.00    +0.169 A 
ATOM      3  C   LIG    1       -3.981 -12.042 -17.721  0.00  0.00    -0.198 A 
ATOM      4  C   LIG    1       -4.783 -11.209 -16.951  0.00  0.00    +0.305 A 
ATOM      5  O   LIG    1       -5.487 -11.721 -15.908  0.00  0.00    -0.606 OA
ATOM      6  C   LIG    1       -4.868  -9.849 -17.245  0.00  0.00    -0.020 A 
ATOM      7  C   LIG    1       -4.149  -9.324 -18.300  0.00  0.00    +0.085 A 
ENDROOT
BRANCH   3   8
ATOM      8  N   LIG    1       -3.897 -13.486 -17.403  0.00  0.00    +0.069 N 
ATOM      9  O   LIG    1       -3.828 -13.849 -16.253  0.00  0.00    -0.155 OA
ATOM     10  O   LIG    1       -3.898 -14.302 -18.295  0.00  0.00    -0.249 OA
ENDBRANCH   3   8
BRANCH   1  12
ATOM     11  C   LIG    1       -1.524  -8.802 -19.978  0.00  0.00    -0.185 C 
ATOM     12  C   LIG    1       -2.581  -9.613 -20.209  0.00  0.00    +0.193 C 
BRANCH  11  13
ATOM     13  C   LIG    1       -0.787  -8.271 -21.066  0.00  0.00    +0.428 C 
ATOM     14  O   LIG    1       -1.357  -7.982 -22.103  0.00  0.00    -0.484 OA
BRANCH  13  18
ATOM     15  C   LIG    1        3.406  -7.686 -20.712  0.00  0.00    +0.025 A 
ATOM     16  C   LIG    1        2.595  -6.638 -21.113  0.00  0.00    -0.010 A 
ATOM     17  C   LIG    1        1.234  -6.821 -21.230  0.00  0.00    +0.063 A 
ATOM     18  C   LIG    1        0.672  -8.067 -20.943  0.00  0.00    -0.152 A 
ATOM     19  C   LIG    1        1.496  -9.120 -20.539  0.00  0.00    +0.058 A 
ATOM     20  C   LIG    1        2.856  -8.923 -20.425  0.00  0.00    -0.007 A 
ENDBRANCH  13  18
ENDBRANCH  11  13
ENDBRANCH   1  12
BRANCH   6  21
ATOM     21  O   LIG    1       -5.655  -9.038 -16.489  0.00  0.00    -0.480 OA
ATOM     22  H   LIG    1       -5.955  -9.439 -15.661  0.00  0.00    +0.370 HD
ENDBRANCH   6  21
TORSDOF 5
ENDMDL
MODEL 4
REMARK VINA RESULT:      -6.7      1.238      2.588
REMARK  Name = CHEMBL169926
REMARK                            x       y       z     vdW  Elec       q    Type
REMARK                         _______ _______ _______ _____ _____    ______ ____
ROOT
ATOM      1  C   LIG    1       -3.537 -13.379 -18.601  0.00  0.00    -0.219 A 
ATOM      2  C   LIG    1       -4.300 -12.927 -17.516  0.00  0.00    +0.169 A 
ATOM      3  C   LIG    1       -4.557 -11.584 -17.368  0.00  0.00    -0.198 A 
ATOM      4  C   LIG    1       -4.063 -10.672 -18.293  0.00  0.00    +0.305 A 
ATOM      5  O   LIG    1       -4.320  -9.347 -18.142  0.00  0.00    -0.606 OA
ATOM      6  C   LIG    1       -3.303 -11.113 -19.376  0.00  0.00    -0.020 A 
ATOM      7  C   LIG    1       -3.035 -12.458 -19.529  0.00  0.00    +0.085 A 
ENDROOT
BRANCH   3   8
ATOM      8  N   LIG    1       -5.364 -11.108 -16.222  0.00  0.00    +0.069 N 
ATOM      9  O   LIG    1       -5.413 -11.758 -15.205  0.00  0.00    -0.155 OA
ATOM     10  O   LIG    1       -5.974 -10.066 -16.303  0.00  0.00    -0.249 OA
ENDBRANCH   3   8
BRANCH   1  12
ATOM     11  C   LIG    1       -3.321 -15.380 -19.987  0.00  0.00    -0.185 C 
ATOM     12  C   LIG    1       -3.259 -14.813 -18.761  0.00  0.00    +0.193 C 
BRANCH  11  13
ATOM     13  C   LIG    1       -3.053 -16.763 -20.142  0.00  0.00    +0.428 C 
ATOM     14  O   LIG    1       -1.997 -17.227 -19.748  0.00  0.00    -0.484 OA
BRANCH  13  18
ATOM     15  C   LIG    1       -5.931 -19.294 -21.976  0.00  0.00    +0.025 A 
ATOM     16  C   LIG    1       -5.315 -19.689 -20.801  0.00  0.00    -0.010 A 
ATOM     17  C   LIG    1       -4.380 -18.872 -20.201  0.00  0.00    +0.063 A 
ATOM     18  C   LIG    1       -4.055 -17.644 -20.780  0.00  0.00    -0.152 A 
ATOM     19  C   LIG    1       -4.679 -17.253 -21.966  0.00  0.00    +0.058 A 
ATOM     20  C   LIG    1       -5.613 -18.078 -22.556  0.00  0.00    -0.007 A 
ENDBRANCH  13  18
ENDBRANCH  11  13
ENDBRANCH   1  12
BRANCH   6  21
ATOM     21  O   LIG    1       -2.822 -10.217 -20.279  0.00  0.00    -0.480 OA
ATOM     22  H   LIG    1       -3.499  -9.641 -20.661  0.00  0.00    +0.370 HD
ENDBRANCH   6  21
TORSDOF 5
ENDMDL
MODEL 5
REMARK VINA RESULT:      -6.7      5.483      8.159
REMARK  Name = CHEMBL169926
REMARK                            x       y       z     vdW  Elec       q    Type
REMARK                         _______ _______ _______ _____ _____    ______ ____
ROOT
ATOM      1  C   LIG    1        0.134  -9.085 -20.783  0.00  0.00    -0.219 A 
ATOM      2  C   LIG    1        1.303  -9.839 -20.619  0.00  0.00    +0.169 A 
ATOM      3  C   LIG    1        2.527  -9.211 -20.583  0.00  0.00    -0.198 A 
ATOM      4  C   LIG    1        2.607  -7.830 -20.707  0.00  0.00    +0.305 A 
ATOM      5  O   LIG    1        3.817  -7.215 -20.670  0.00  0.00    -0.606 OA
ATOM      6  C   LIG    1        1.448  -7.071 -20.869  0.00  0.00    -0.020 A 
ATOM      7  C   LIG    1        0.216  -7.693 -20.913  0.00  0.00    +0.085 A 
ENDROOT
BRANCH   3   8
ATOM      8  N   LIG    1        3.762 -10.009 -20.410  0.00  0.00    +0.069 N 
ATOM      9  O   LIG    1        4.350 -10.430 -21.377  0.00  0.00    -0.155 OA
ATOM     10  O   LIG    1        4.182 -10.238 -19.299  0.00  0.00    -0.249 OA
ENDBRANCH   3   8
BRANCH   1  12
ATOM     11  C   LIG    1       -2.069  -9.548 -19.829  0.00  0.00    -0.185 C 
ATOM     12  C   LIG    1       -1.175  -9.753 -20.823  0.00  0.00    +0.193 C 
BRANCH  11  13
ATOM     13  C   LIG    1       -3.331 -10.192 -19.868  0.00  0.00    +0.428 C 
ATOM     14  O   LIG    1       -3.848 -10.455 -20.939  0.00  0.00    -0.484 OA
BRANCH  13  18
ATOM     15  C   LIG    1       -5.313 -11.208 -16.249  0.00  0.00    +0.025 A 
ATOM     16  C   LIG    1       -4.562 -12.162 -16.916  0.00  0.00    -0.010 A 
ATOM     17  C   LIG    1       -3.917 -11.838 -18.090  0.00  0.00    +0.063 A 
ATOM     18  C   LIG    1       -4.020 -10.546 -18.608  0.00  0.00    -0.152 A 
ATOM     19  C   LIG    1       -4.778  -9.589 -17.931  0.00  0.00    +0.058 A 
ATOM     20  C   LIG    1       -5.419  -9.925 -16.757  0.00  0.00    -0.007 A 
ENDBRANCH  13  18
ENDBRANCH  11  13
ENDBRANCH   1  12
BRANCH   6  21
ATOM     21  O   LIG    1        1.531  -5.720 -20.990  0.00  0.00    -0.480 OA
ATOM     22  H   LIG    1        1.123  -5.233 -20.260  0.00  0.00    +0.370 HD
ENDBRANCH   6  21
TORSDOF 5
ENDMDL
MODEL 6
REMARK VINA RESULT:      -6.6      4.175      7.037
REMARK  Name = CHEMBL169926
REMARK                            x       y       z     vdW  Elec       q    Type
REMARK                         _______ _______ _______ _____ _____    ______ ____
ROOT
ATOM      1  C   LIG    1       -1.286  -8.872 -20.728  0.00  0.00    -0.219 A 
ATOM      2  C   LIG    1       -0.005  -8.341 -20.530  0.00  0.00    +0.169 A 
ATOM      3  C   LIG    1        0.637  -7.691 -21.559  0.00  0.00    -0.198 A 
ATOM      4  C   LIG    1        0.018  -7.559 -22.796  0.00  0.00    +0.305 A 
ATOM      5  O   LIG    1        0.656  -6.916 -23.808  0.00  0.00    -0.606 OA
ATOM      6  C   LIG    1       -1.258  -8.083 -23.002  0.00  0.00    -0.020 A 
ATOM      7  C   LIG    1       -1.907  -8.742 -21.977  0.00  0.00    +0.085 A 
ENDROOT
BRANCH   3   8
ATOM      8  N   LIG    1        1.991  -7.130 -21.349  0.00  0.00    +0.069 N 
ATOM      9  O   LIG    1        2.145  -6.177 -20.622  0.00  0.00    -0.155 OA
ATOM     10  O   LIG    1        2.943  -7.626 -21.905  0.00  0.00    -0.249 OA
ENDBRANCH   3   8
BRANCH   1  12
ATOM     11  C   LIG    1       -3.226 -10.045 -19.814  0.00  0.00    -0.185 C 
ATOM     12  C   LIG    1       -1.974  -9.567 -19.632  0.00  0.00    +0.193 C 
BRANCH  11  13
ATOM     13  C   LIG    1       -3.889 -10.716 -18.756  0.00  0.00    +0.428 C 
ATOM     14  O   LIG    1       -4.597 -10.090 -17.988  0.00  0.00    -0.484 OA
BRANCH  13  18
ATOM     15  C   LIG    1       -3.408 -14.909 -18.268  0.00  0.00    +0.025 A 
ATOM     16  C   LIG    1       -3.806 -14.131 -17.194  0.00  0.00    -0.010 A 
ATOM     17  C   LIG    1       -3.964 -12.770 -17.346  0.00  0.00    +0.063 A 
ATOM     18  C   LIG    1       -3.722 -12.175 -18.586  0.00  0.00    -0.152 A 
ATOM     19  C   LIG    1       -3.321 -12.966 -19.665  0.00  0.00    +0.058 A 
ATOM     20  C   LIG    1       -3.167 -14.327 -19.500  0.00  0.00    -0.007 A 
ENDBRANCH  13  18
ENDBRANCH  11  13
ENDBRANCH   1  12
BRANCH   6  21
ATOM     21  O   LIG    1       -1.861  -7.951 -24.213  0.00  0.00    -0.480 OA
ATOM     22  H   LIG    1       -2.756  -8.315 -24.250  0.00  0.00    +0.370 HD
ENDBRANCH   6  21
TORSDOF 5
ENDMDL
MODEL 7
REMARK VINA RESULT:      -6.6      5.552      8.088
REMARK  Name = CHEMBL169926
REMARK                            x       y       z     vdW  Elec       q    Type
REMARK                         _______ _______ _______ _____ _____    ______ ____
ROOT
ATOM      1  C   LIG    1       -0.747  -8.494 -21.170  0.00  0.00    -0.219 A 
ATOM      2  C   LIG    1       -1.278  -8.196 -22.432  0.00  0.00    +0.169 A 
ATOM      3  C   LIG    1       -0.756  -7.159 -23.170  0.00  0.00    -0.198 A 
ATOM      4  C   LIG    1        0.297  -6.404 -22.667  0.00  0.00    +0.305 A 
ATOM      5  O   LIG    1        0.808  -5.382 -23.401  0.00  0.00    -0.606 OA
ATOM      6  C   LIG    1        0.831  -6.694 -21.412  0.00  0.00    -0.020 A 
ATOM      7  C   LIG    1        0.310  -7.729 -20.662  0.00  0.00    +0.085 A 
ENDROOT
BRANCH   3   8
ATOM      8  N   LIG    1       -1.317  -6.846 -24.504  0.00  0.00    +0.069 N 
ATOM      9  O   LIG    1       -2.190  -6.019 -24.614  0.00  0.00    -0.155 OA
ATOM     10  O   LIG    1       -0.900  -7.419 -25.484  0.00  0.00    -0.249 OA
ENDBRANCH   3   8
BRANCH   1  12
ATOM     11  C   LIG    1       -2.637  -9.820 -20.367  0.00  0.00    -0.185 C 
ATOM     12  C   LIG    1       -1.303  -9.600 -20.379  0.00  0.00    +0.193 C 
BRANCH  11  13
ATOM     13  C   LIG    1       -3.173 -10.888 -19.604  0.00  0.00    +0.428 C 
ATOM     14  O   LIG    1       -2.905 -12.039 -19.897  0.00  0.00    -0.484 OA
BRANCH  13  18
ATOM     15  C   LIG    1       -5.711 -10.072 -16.296  0.00  0.00    +0.025 A 
ATOM     16  C   LIG    1       -5.202 -11.346 -16.476  0.00  0.00    -0.010 A 
ATOM     17  C   LIG    1       -4.378 -11.618 -17.548  0.00  0.00    +0.063 A 
ATOM     18  C   LIG    1       -4.056 -10.604 -18.452  0.00  0.00    -0.152 A 
ATOM     19  C   LIG    1       -4.573  -9.321 -18.265  0.00  0.00    +0.058 A 
ATOM     20  C   LIG    1       -5.396  -9.062 -17.189  0.00  0.00    -0.007 A 
ENDBRANCH  13  18
ENDBRANCH  11  13
ENDBRANCH   1  12
BRANCH   6  21
ATOM     21  O   LIG    1        1.862  -5.953 -20.925  0.00  0.00    -0.480 OA
ATOM     22  H   LIG    1        1.626  -5.399 -20.167  0.00  0.00    +0.370 HD
ENDBRANCH   6  21
TORSDOF 5
ENDMDL
MODEL 8
REMARK VINA RESULT:      -6.6      3.930      6.704
REMARK  Name = CHEMBL169926
REMARK                            x       y       z     vdW  Elec       q    Type
REMARK                         _______ _______ _______ _____ _____    ______ ____
ROOT
ATOM      1  C   LIG    1       -1.612  -9.039 -20.613  0.00  0.00    -0.219 A 
ATOM      2  C   LIG    1       -2.156  -9.093 -21.902  0.00  0.00    +0.169 A 
ATOM      3  C   LIG    1       -1.643  -8.296 -22.900  0.00  0.00    -0.198 A 
ATOM      4  C   LIG    1       -0.585  -7.436 -22.632  0.00  0.00    +0.305 A 
ATOM      5  O   LIG    1       -0.082  -6.652 -23.620  0.00  0.00    -0.606 OA
ATOM      6  C   LIG    1       -0.036  -7.377 -21.351  0.00  0.00    -0.020 A 
ATOM      7  C   LIG    1       -0.548  -8.168 -20.343  0.00  0.00    +0.085 A 
ENDROOT
BRANCH   3   8
ATOM      8  N   LIG    1       -2.219  -8.354 -24.262  0.00  0.00    +0.069 N 
ATOM      9  O   LIG    1       -1.890  -9.234 -25.021  0.00  0.00    -0.155 OA
ATOM     10  O   LIG    1       -3.020  -7.519 -24.616  0.00  0.00    -0.249 OA
ENDBRANCH   3   8
BRANCH   1  12
ATOM     11  C   LIG    1       -3.486  -9.885 -19.292  0.00  0.00    -0.185 C 
ATOM     12  C   LIG    1       -2.158  -9.888 -19.545  0.00  0.00    +0.193 C 
BRANCH  11  13
ATOM     13  C   LIG    1       -4.013 -10.705 -18.263  0.00  0.00    +0.428 C 
ATOM     14  O   LIG    1       -4.635 -10.203 -17.343  0.00  0.00    -0.484 OA
BRANCH  13  18
ATOM     15  C   LIG    1       -3.425 -14.911 -18.385  0.00  0.00    +0.025 A 
ATOM     16  C   LIG    1       -3.743 -14.294 -17.187  0.00  0.00    -0.010 A 
ATOM     17  C   LIG    1       -3.935 -12.929 -17.141  0.00  0.00    +0.063 A 
ATOM     18  C   LIG    1       -3.809 -12.169 -18.305  0.00  0.00    -0.152 A 
ATOM     19  C   LIG    1       -3.488 -12.798 -19.510  0.00  0.00    +0.058 A 
ATOM     20  C   LIG    1       -3.299 -14.163 -19.543  0.00  0.00    -0.007 A 
ENDBRANCH  13  18
ENDBRANCH  11  13
ENDBRANCH   1  12
BRANCH   6  21
ATOM     21  O   LIG    1        1.000  -6.535 -21.094  0.00  0.00    -0.480 OA
ATOM     22  H   LIG    1        1.477  -6.735 -20.277  0.00  0.00    +0.370 HD
ENDBRANCH   6  21
TORSDOF 5
ENDMDL
MODEL 9
REMARK VINA RESULT:      -6.2      5.105      9.059
REMARK  Name = CHEMBL169926
REMARK                            x       y       z     vdW  Elec       q    Type
REMARK                         _______ _______ _______ _____ _____    ______ ____
ROOT
ATOM      1  C   LIG    1       -2.121  -9.771 -20.030  0.00  0.00    -0.219 A 
ATOM      2  C   LIG    1       -2.676 -10.157 -18.803  0.00  0.00    +0.169 A 
ATOM      3  C   LIG    1       -3.632 -11.146 -18.762  0.00  0.00    -0.198 A 
ATOM      4  C   LIG    1       -4.049 -11.764 -19.934  0.00  0.00    +0.305 A 
ATOM      5  O   LIG    1       -4.993 -12.740 -19.887  0.00  0.00    -0.606 OA
ATOM      6  C   LIG    1       -3.501 -11.386 -21.160  0.00  0.00    -0.020 A 
ATOM      7  C   LIG    1       -2.546 -10.391 -21.212  0.00  0.00    +0.085 A 
ENDROOT
BRANCH   3   8
ATOM      8  N   LIG    1       -4.217 -11.554 -17.465  0.00  0.00    +0.069 N 
ATOM      9  O   LIG    1       -3.813 -12.545 -16.903  0.00  0.00    -0.155 OA
ATOM     10  O   LIG    1       -5.101 -10.896 -16.967  0.00  0.00    -0.249 OA
ENDBRANCH   3   8
BRANCH   1  12
ATOM     11  C   LIG    1       -0.023  -8.851 -20.884  0.00  0.00    -0.185 C 
ATOM     12  C   LIG    1       -1.101  -8.715 -20.078  0.00  0.00    +0.193 C 
BRANCH  11  13
ATOM     13  C   LIG    1        0.960  -7.832 -20.930  0.00  0.00    +0.428 C 
ATOM     14  O   LIG    1        0.652  -6.703 -21.268  0.00  0.00    -0.484 OA
BRANCH  13  18
ATOM     15  C   LIG    1        4.985  -8.712 -19.888  0.00  0.00    +0.025 A 
ATOM     16  C   LIG    1        4.026  -9.710 -19.840  0.00  0.00    -0.010 A 
ATOM     17  C   LIG    1        2.719  -9.431 -20.176  0.00  0.00    +0.063 A 
ATOM     18  C   LIG    1        2.361  -8.139 -20.568  0.00  0.00    -0.152 A 
ATOM     19  C   LIG    1        3.333  -7.137 -20.614  0.00  0.00    +0.058 A 
ATOM     20  C   LIG    1        4.637  -7.429 -20.275  0.00  0.00    -0.007 A 
ENDBRANCH  13  18
ENDBRANCH  11  13
ENDBRANCH   1  12
BRANCH   6  21
ATOM     21  O   LIG    1       -3.912 -11.994 -22.304  0.00  0.00    -0.480 OA
ATOM     22  H   LIG    1       -4.870 -12.115 -22.365  0.00  0.00    +0.370 HD
ENDBRANCH   6  21
TORSDOF 5
ENDMDL
