MODEL 1
REMARK VINA RESULT:      -8.2      0.000      0.000
REMARK  Name = CHEMBL8476
REMARK                            x       y       z     vdW  Elec       q    Type
REMARK                         _______ _______ _______ _____ _____    ______ ____
ROOT
ATOM      1  C   LIG    1       -6.481  -1.590 -19.177  0.00  0.00    -0.089 A 
ATOM      2  C   LIG    1       -7.641  -1.357 -18.428  0.00  0.00    -0.047 A 
ATOM      3  C   LIG    1       -7.779  -0.183 -17.720  0.00  0.00    +0.033 A 
ATOM      4  C   LIG    1       -6.769   0.770 -17.747  0.00  0.00    +0.011 A 
ATOM      5  C   LIG    1       -5.610   0.544 -18.490  0.00  0.00    +0.273 A 
ATOM      6  O   LIG    1       -4.624   1.481 -18.514  0.00  0.00    -0.674 OA
ATOM      7  C   LIG    1       -5.461  -0.631 -19.198  0.00  0.00    -0.138 A 
ENDROOT
BRANCH   7   8
ATOM      8  N   LIG    1       -4.230  -0.875 -19.983  0.00  0.00    +0.078 N 
ATOM      9  O   LIG    1       -4.156  -0.489 -21.126  0.00  0.00    -0.173 OA
ATOM     10  O   LIG    1       -3.300  -1.461 -19.481  0.00  0.00    -0.172 OA
ENDBRANCH   7   8
BRANCH   1  11
ATOM     11  C   LIG    1       -6.332  -2.841 -19.932  0.00  0.00    +0.384 C 
ATOM     12  O   LIG    1       -6.418  -2.833 -21.142  0.00  0.00    -0.446 OA
BRANCH  11  13
ATOM     13  C   LIG    1       -6.074  -4.135 -19.204  0.00  0.00    +0.044 C 
BRANCH  13  14
ATOM     14  C   LIG    1       -7.307  -4.510 -18.378  0.00  0.00    +0.035 C 
BRANCH  14  15
ATOM     15  C   LIG    1       -7.905  -5.811 -18.917  0.00  0.00    +0.066 C 
BRANCH  15  19
ATOM     16  C   LIG    1       -6.848  -9.039 -16.326  0.00  0.00    -0.010 A 
ATOM     17  C   LIG    1       -5.910  -8.517 -17.198  0.00  0.00    +0.001 A 
ATOM     18  C   LIG    1       -6.252  -7.473 -18.037  0.00  0.00    +0.004 A 
ATOM     19  C   LIG    1       -7.532  -6.951 -18.004  0.00  0.00    -0.077 A 
ATOM     20  C   LIG    1       -8.470  -7.473 -17.132  0.00  0.00    +0.004 A 
ATOM     21  C   LIG    1       -8.127  -8.516 -16.293  0.00  0.00    +0.001 A 
ENDBRANCH  15  19
ENDBRANCH  14  15
ENDBRANCH  13  14
ENDBRANCH  11  13
ENDBRANCH   1  11
BRANCH   4  22
ATOM     22  O   LIG    1       -6.909   1.924 -17.047  0.00  0.00    -0.481 OA
ATOM     23  H   LIG    1       -7.809   2.279 -17.049  0.00  0.00    +0.372 HD
ENDBRANCH   4  22
TORSDOF 7
ENDMDL
MODEL 2
REMARK VINA RESULT:      -7.8      1.554      2.891
REMARK  Name = CHEMBL8476
REMARK                            x       y       z     vdW  Elec       q    Type
REMARK                         _______ _______ _______ _____ _____    ______ ____
ROOT
ATOM      1  C   LIG    1       -5.825  -1.277 -19.526  0.00  0.00    -0.089 A 
ATOM      2  C   LIG    1       -4.973  -1.608 -20.585  0.00  0.00    -0.047 A 
ATOM      3  C   LIG    1       -3.983  -0.732 -20.972  0.00  0.00    +0.033 A 
ATOM      4  C   LIG    1       -3.828   0.481 -20.312  0.00  0.00    +0.011 A 
ATOM      5  C   LIG    1       -4.675   0.818 -19.255  0.00  0.00    +0.273 A 
ATOM      6  O   LIG    1       -4.519   2.005 -18.612  0.00  0.00    -0.674 OA
ATOM      7  C   LIG    1       -5.673  -0.052 -18.865  0.00  0.00    -0.138 A 
ENDROOT
BRANCH   7   8
ATOM      8  N   LIG    1       -6.575   0.306 -17.748  0.00  0.00    +0.078 N 
ATOM      9  O   LIG    1       -6.360  -0.120 -16.638  0.00  0.00    -0.173 OA
ATOM     10  O   LIG    1       -7.528   1.023 -17.946  0.00  0.00    -0.172 OA
ENDBRANCH   7   8
BRANCH   1  11
ATOM     11  C   LIG    1       -6.882  -2.210 -19.113  0.00  0.00    +0.384 C 
ATOM     12  O   LIG    1       -7.885  -1.791 -18.574  0.00  0.00    -0.446 OA
BRANCH  11  13
ATOM     13  C   LIG    1       -6.721  -3.688 -19.357  0.00  0.00    +0.044 C 
BRANCH  13  14
ATOM     14  C   LIG    1       -7.327  -4.468 -18.188  0.00  0.00    +0.035 C 
BRANCH  14  15
ATOM     15  C   LIG    1       -7.988  -5.744 -18.715  0.00  0.00    +0.066 C 
BRANCH  15  19
ATOM     16  C   LIG    1       -6.634  -9.093 -16.436  0.00  0.00    -0.010 A 
ATOM     17  C   LIG    1       -7.949  -8.677 -16.337  0.00  0.00    +0.001 A 
ATOM     18  C   LIG    1       -8.386  -7.592 -17.074  0.00  0.00    +0.004 A 
ATOM     19  C   LIG    1       -7.510  -6.925 -17.910  0.00  0.00    -0.077 A 
ATOM     20  C   LIG    1       -6.195  -7.342 -18.008  0.00  0.00    +0.004 A 
ATOM     21  C   LIG    1       -5.758  -8.427 -17.271  0.00  0.00    +0.001 A 
ENDBRANCH  15  19
ENDBRANCH  14  15
ENDBRANCH  13  14
ENDBRANCH  11  13
ENDBRANCH   1  11
BRANCH   4  22
ATOM     22  O   LIG    1       -2.852   1.341 -20.697  0.00  0.00    -0.481 OA
ATOM     23  H   LIG    1       -2.507   1.174 -21.585  0.00  0.00    +0.372 HD
ENDBRANCH   4  22
TORSDOF 7
ENDMDL
MODEL 3
REMARK VINA RESULT:      -7.4      4.074      7.538
REMARK  Name = CHEMBL8476
REMARK                            x       y       z     vdW  Elec       q    Type
REMARK                         _______ _______ _______ _____ _____    ______ ____
ROOT
ATOM      1  C   LIG    1       -5.143  -0.882 -19.417  0.00  0.00    -0.089 A 
ATOM      2  C   LIG    1       -5.117  -2.125 -20.062  0.00  0.00    -0.047 A 
ATOM      3  C   LIG    1       -6.175  -2.995 -19.922  0.00  0.00    +0.033 A 
ATOM      4  C   LIG    1       -7.270  -2.643 -19.142  0.00  0.00    +0.011 A 
ATOM      5  C   LIG    1       -7.303  -1.406 -18.496  0.00  0.00    +0.273 A 
ATOM      6  O   LIG    1       -8.376  -1.066 -17.735  0.00  0.00    -0.674 OA
ATOM      7  C   LIG    1       -6.244  -0.531 -18.626  0.00  0.00    -0.138 A 
ENDROOT
BRANCH   7   8
ATOM      8  N   LIG    1       -6.274   0.779 -17.937  0.00  0.00    +0.078 N 
ATOM      9  O   LIG    1       -6.825   1.721 -18.456  0.00  0.00    -0.173 OA
ATOM     10  O   LIG    1       -5.748   0.906 -16.857  0.00  0.00    -0.172 OA
ENDBRANCH   7   8
BRANCH   1  11
ATOM     11  C   LIG    1       -4.015   0.047 -19.564  0.00  0.00    +0.384 C 
ATOM     12  O   LIG    1       -3.010  -0.110 -18.902  0.00  0.00    -0.446 OA
BRANCH  11  13
ATOM     13  C   LIG    1       -4.106   1.195 -20.536  0.00  0.00    +0.044 C 
BRANCH  13  14
ATOM     14  C   LIG    1       -2.804   1.290 -21.336  0.00  0.00    +0.035 C 
BRANCH  14  15
ATOM     15  C   LIG    1       -3.005   0.653 -22.713  0.00  0.00    +0.066 C 
BRANCH  15  19
ATOM     16  C   LIG    1        0.698  -0.985 -24.073  0.00  0.00    -0.010 A 
ATOM     17  C   LIG    1       -0.454  -1.174 -24.813  0.00  0.00    +0.001 A 
ATOM     18  C   LIG    1       -1.652  -0.644 -24.373  0.00  0.00    +0.004 A 
ATOM     19  C   LIG    1       -1.699   0.074 -23.193  0.00  0.00    -0.077 A 
ATOM     20  C   LIG    1       -0.546   0.263 -22.452  0.00  0.00    +0.004 A 
ATOM     21  C   LIG    1        0.652  -0.266 -22.894  0.00  0.00    +0.001 A 
ENDBRANCH  15  19
ENDBRANCH  14  15
ENDBRANCH  13  14
ENDBRANCH  11  13
ENDBRANCH   1  11
BRANCH   4  22
ATOM     22  O   LIG    1       -8.310  -3.504 -19.007  0.00  0.00    -0.481 OA
ATOM     23  H   LIG    1       -8.124  -4.398 -19.326  0.00  0.00    +0.372 HD
ENDBRANCH   4  22
TORSDOF 7
ENDMDL
MODEL 4
REMARK VINA RESULT:      -7.4      3.139      4.711
REMARK  Name = CHEMBL8476
REMARK                            x       y       z     vdW  Elec       q    Type
REMARK                         _______ _______ _______ _____ _____    ______ ____
ROOT
ATOM      1  C   LIG    1       -5.761  -1.087 -19.452  0.00  0.00    -0.089 A 
ATOM      2  C   LIG    1       -4.949  -1.487 -20.519  0.00  0.00    -0.047 A 
ATOM      3  C   LIG    1       -3.952  -0.654 -20.975  0.00  0.00    +0.033 A 
ATOM      4  C   LIG    1       -3.750   0.584 -20.378  0.00  0.00    +0.011 A 
ATOM      5  C   LIG    1       -4.556   0.990 -19.314  0.00  0.00    +0.273 A 
ATOM      6  O   LIG    1       -4.354   2.202 -18.733  0.00  0.00    -0.674 OA
ATOM      7  C   LIG    1       -5.561   0.163 -18.855  0.00  0.00    -0.138 A 
ENDROOT
BRANCH   7   8
ATOM      8  N   LIG    1       -6.421   0.595 -17.730  0.00  0.00    +0.078 N 
ATOM      9  O   LIG    1       -6.144   0.270 -16.599  0.00  0.00    -0.173 OA
ATOM     10  O   LIG    1       -7.400   1.270 -17.942  0.00  0.00    -0.172 OA
ENDBRANCH   7   8
BRANCH   1  11
ATOM     11  C   LIG    1       -6.826  -1.974 -18.965  0.00  0.00    +0.384 C 
ATOM     12  O   LIG    1       -7.756  -1.516 -18.334  0.00  0.00    -0.446 OA
BRANCH  11  13
ATOM     13  C   LIG    1       -6.763  -3.453 -19.247  0.00  0.00    +0.044 C 
BRANCH  13  14
ATOM     14  C   LIG    1       -7.343  -3.732 -20.636  0.00  0.00    +0.035 C 
BRANCH  14  15
ATOM     15  C   LIG    1       -8.646  -4.523 -20.495  0.00  0.00    +0.066 C 
BRANCH  15  19
ATOM     16  C   LIG    1      -10.013  -5.709 -24.364  0.00  0.00    -0.010 A 
ATOM     17  C   LIG    1       -9.295  -4.537 -24.215  0.00  0.00    +0.001 A 
ATOM     18  C   LIG    1       -8.853  -4.154 -22.963  0.00  0.00    +0.004 A 
ATOM     19  C   LIG    1       -9.129  -4.940 -21.860  0.00  0.00    -0.077 A 
ATOM     20  C   LIG    1       -9.848  -6.112 -22.010  0.00  0.00    +0.004 A 
ATOM     21  C   LIG    1      -10.289  -6.497 -23.262  0.00  0.00    +0.001 A 
ENDBRANCH  15  19
ENDBRANCH  14  15
ENDBRANCH  13  14
ENDBRANCH  11  13
ENDBRANCH   1  11
BRANCH   4  22
ATOM     22  O   LIG    1       -2.766   1.401 -20.832  0.00  0.00    -0.481 OA
ATOM     23  H   LIG    1       -2.948   2.343 -20.709  0.00  0.00    +0.372 HD
ENDBRANCH   4  22
TORSDOF 7
ENDMDL
MODEL 5
REMARK VINA RESULT:      -7.4      9.320     12.305
REMARK  Name = CHEMBL8476
REMARK                            x       y       z     vdW  Elec       q    Type
REMARK                         _______ _______ _______ _____ _____    ______ ____
ROOT
ATOM      1  C   LIG    1       -3.402 -13.673 -19.286  0.00  0.00    -0.089 A 
ATOM      2  C   LIG    1       -3.602 -14.459 -18.146  0.00  0.00    -0.047 A 
ATOM      3  C   LIG    1       -4.085 -13.886 -16.990  0.00  0.00    +0.033 A 
ATOM      4  C   LIG    1       -4.373 -12.527 -16.954  0.00  0.00    +0.011 A 
ATOM      5  C   LIG    1       -4.175 -11.737 -18.086  0.00  0.00    +0.273 A 
ATOM      6  O   LIG    1       -4.459 -10.408 -18.045  0.00  0.00    -0.674 OA
ATOM      7  C   LIG    1       -3.687 -12.302 -19.246  0.00  0.00    -0.138 A 
ENDROOT
BRANCH   7   8
ATOM      8  N   LIG    1       -3.471 -11.464 -20.448  0.00  0.00    +0.078 N 
ATOM      9  O   LIG    1       -4.348 -11.353 -21.271  0.00  0.00    -0.173 OA
ATOM     10  O   LIG    1       -2.418 -10.893 -20.604  0.00  0.00    -0.172 OA
ENDBRANCH   7   8
BRANCH   1  11
ATOM     11  C   LIG    1       -2.886 -14.282 -20.520  0.00  0.00    +0.384 C 
ATOM     12  O   LIG    1       -1.695 -14.274 -20.748  0.00  0.00    -0.446 OA
BRANCH  11  13
ATOM     13  C   LIG    1       -3.838 -14.917 -21.501  0.00  0.00    +0.044 C 
BRANCH  13  14
ATOM     14  C   LIG    1       -3.369 -16.339 -21.820  0.00  0.00    +0.035 C 
BRANCH  14  15
ATOM     15  C   LIG    1       -3.636 -17.245 -20.616  0.00  0.00    +0.066 C 
BRANCH  15  19
ATOM     16  C   LIG    1       -6.460 -20.259 -21.706  0.00  0.00    -0.010 A 
ATOM     17  C   LIG    1       -6.270 -19.161 -22.525  0.00  0.00    +0.001 A 
ATOM     18  C   LIG    1       -5.357 -18.186 -22.172  0.00  0.00    +0.004 A 
ATOM     19  C   LIG    1       -4.633 -18.308 -21.001  0.00  0.00    -0.077 A 
ATOM     20  C   LIG    1       -4.823 -19.406 -20.182  0.00  0.00    +0.004 A 
ATOM     21  C   LIG    1       -5.736 -20.382 -20.535  0.00  0.00    +0.001 A 
ENDBRANCH  15  19
ENDBRANCH  14  15
ENDBRANCH  13  14
ENDBRANCH  11  13
ENDBRANCH   1  11
BRANCH   4  22
ATOM     22  O   LIG    1       -4.847 -11.967 -15.812  0.00  0.00    -0.481 OA
ATOM     23  H   LIG    1       -4.452 -12.323 -15.005  0.00  0.00    +0.372 HD
ENDBRANCH   4  22
TORSDOF 7
ENDMDL
MODEL 6
REMARK VINA RESULT:      -6.7     10.168     12.959
REMARK  Name = CHEMBL8476
REMARK                            x       y       z     vdW  Elec       q    Type
REMARK                         _______ _______ _______ _____ _____    ______ ____
ROOT
ATOM      1  C   LIG    1       -3.562 -13.334 -19.921  0.00  0.00    -0.089 A 
ATOM      2  C   LIG    1       -4.074 -12.032 -19.942  0.00  0.00    -0.047 A 
ATOM      3  C   LIG    1       -4.421 -11.409 -18.764  0.00  0.00    +0.033 A 
ATOM      4  C   LIG    1       -4.265 -12.071 -17.553  0.00  0.00    +0.011 A 
ATOM      5  C   LIG    1       -3.756 -13.370 -17.523  0.00  0.00    +0.273 A 
ATOM      6  O   LIG    1       -3.604 -14.013 -16.335  0.00  0.00    -0.674 OA
ATOM      7  C   LIG    1       -3.410 -14.003 -18.700  0.00  0.00    -0.138 A 
ENDROOT
BRANCH   7   8
ATOM      8  N   LIG    1       -2.875 -15.383 -18.671  0.00  0.00    +0.078 N 
ATOM      9  O   LIG    1       -1.681 -15.567 -18.639  0.00  0.00    -0.173 OA
ATOM     10  O   LIG    1       -3.632 -16.325 -18.681  0.00  0.00    -0.172 OA
ENDBRANCH   7   8
BRANCH   1  11
ATOM     11  C   LIG    1       -3.191 -14.001 -21.177  0.00  0.00    +0.384 C 
ATOM     12  O   LIG    1       -2.035 -14.007 -21.541  0.00  0.00    -0.446 OA
BRANCH  11  13
ATOM     13  C   LIG    1       -4.249 -14.674 -22.012  0.00  0.00    +0.044 C 
BRANCH  13  14
ATOM     14  C   LIG    1       -3.893 -16.153 -22.190  0.00  0.00    +0.035 C 
BRANCH  14  15
ATOM     15  C   LIG    1       -5.041 -16.871 -22.903  0.00  0.00    +0.066 C 
BRANCH  15  19
ATOM     16  C   LIG    1       -5.973 -20.479 -20.815  0.00  0.00    -0.010 A 
ATOM     17  C   LIG    1       -6.623 -20.177 -21.998  0.00  0.00    +0.001 A 
ATOM     18  C   LIG    1       -6.321 -19.010 -22.673  0.00  0.00    +0.004 A 
ATOM     19  C   LIG    1       -5.371 -18.143 -22.166  0.00  0.00    -0.077 A 
ATOM     20  C   LIG    1       -4.722 -18.445 -20.983  0.00  0.00    +0.004 A 
ATOM     21  C   LIG    1       -5.022 -19.613 -20.308  0.00  0.00    +0.001 A 
ENDBRANCH  15  19
ENDBRANCH  14  15
ENDBRANCH  13  14
ENDBRANCH  11  13
ENDBRANCH   1  11
BRANCH   4  22
ATOM     22  O   LIG    1       -4.610 -11.453 -16.395  0.00  0.00    -0.481 OA
ATOM     23  H   LIG    1       -3.936 -10.848 -16.056  0.00  0.00    +0.372 HD
ENDBRANCH   4  22
TORSDOF 7
ENDMDL
MODEL 7
REMARK VINA RESULT:      -6.6      8.780     11.081
REMARK  Name = CHEMBL8476
REMARK                            x       y       z     vdW  Elec       q    Type
REMARK                         _______ _______ _______ _____ _____    ______ ____
ROOT
ATOM      1  C   LIG    1       -3.803 -11.509 -19.469  0.00  0.00    -0.089 A 
ATOM      2  C   LIG    1       -4.217 -10.494 -18.599  0.00  0.00    -0.047 A 
ATOM      3  C   LIG    1       -4.599 -10.803 -17.312  0.00  0.00    +0.033 A 
ATOM      4  C   LIG    1       -4.575 -12.122 -16.875  0.00  0.00    +0.011 A 
ATOM      5  C   LIG    1       -4.164 -13.139 -17.737  0.00  0.00    +0.273 A 
ATOM      6  O   LIG    1       -4.141 -14.428 -17.304  0.00  0.00    -0.674 OA
ATOM      7  C   LIG    1       -3.785 -12.839 -19.029  0.00  0.00    -0.138 A 
ENDROOT
BRANCH   7   8
ATOM      8  N   LIG    1       -3.354 -13.918 -19.947  0.00  0.00    +0.078 N 
ATOM      9  O   LIG    1       -4.112 -14.328 -20.794  0.00  0.00    -0.173 OA
ATOM     10  O   LIG    1       -2.246 -14.389 -19.847  0.00  0.00    -0.172 OA
ENDBRANCH   7   8
BRANCH   1  11
ATOM     11  C   LIG    1       -3.396 -11.182 -20.842  0.00  0.00    +0.384 C 
ATOM     12  O   LIG    1       -4.231 -11.094 -21.717  0.00  0.00    -0.446 OA
BRANCH  11  13
ATOM     13  C   LIG    1       -1.941 -10.956 -21.163  0.00  0.00    +0.044 C 
BRANCH  13  14
ATOM     14  C   LIG    1       -1.594  -9.481 -20.944  0.00  0.00    +0.035 C 
BRANCH  14  15
ATOM     15  C   LIG    1       -1.948  -8.683 -22.201  0.00  0.00    +0.066 C 
BRANCH  15  19
ATOM     16  C   LIG    1        0.957  -5.609 -22.799  0.00  0.00    -0.010 A 
ATOM     17  C   LIG    1        1.010  -6.399 -21.665  0.00  0.00    +0.001 A 
ATOM     18  C   LIG    1        0.070  -7.393 -21.472  0.00  0.00    +0.004 A 
ATOM     19  C   LIG    1       -0.923  -7.598 -22.411  0.00  0.00    -0.077 A 
ATOM     20  C   LIG    1       -0.976  -6.808 -23.545  0.00  0.00    +0.004 A 
ATOM     21  C   LIG    1       -0.035  -5.814 -23.739  0.00  0.00    +0.001 A 
ENDBRANCH  15  19
ENDBRANCH  14  15
ENDBRANCH  13  14
ENDBRANCH  11  13
ENDBRANCH   1  11
BRANCH   4  22
ATOM     22  O   LIG    1       -4.953 -12.421 -15.607  0.00  0.00    -0.481 OA
ATOM     23  H   LIG    1       -4.808 -11.705 -14.973  0.00  0.00    +0.372 HD
ENDBRANCH   4  22
TORSDOF 7
ENDMDL
MODEL 8
REMARK VINA RESULT:      -6.5      4.339      7.426
REMARK  Name = CHEMBL8476
REMARK                            x       y       z     vdW  Elec       q    Type
REMARK                         _______ _______ _______ _____ _____    ______ ____
ROOT
ATOM      1  C   LIG    1       -4.709  -0.182 -19.606  0.00  0.00    -0.089 A 
ATOM      2  C   LIG    1       -4.768   1.072 -18.987  0.00  0.00    -0.047 A 
ATOM      3  C   LIG    1       -5.836   1.390 -18.176  0.00  0.00    +0.033 A 
ATOM      4  C   LIG    1       -6.855   0.468 -17.972  0.00  0.00    +0.011 A 
ATOM      5  C   LIG    1       -6.803  -0.784 -18.586  0.00  0.00    +0.273 A 
ATOM      6  O   LIG    1       -7.802  -1.683 -18.382  0.00  0.00    -0.674 OA
ATOM      7  C   LIG    1       -5.740  -1.108 -19.404  0.00  0.00    -0.138 A 
ENDROOT
BRANCH   7   8
ATOM      8  N   LIG    1       -5.685  -2.433 -20.061  0.00  0.00    +0.078 N 
ATOM      9  O   LIG    1       -6.043  -2.553 -21.210  0.00  0.00    -0.173 OA
ATOM     10  O   LIG    1       -5.285  -3.396 -19.450  0.00  0.00    -0.172 OA
ENDBRANCH   7   8
BRANCH   1  11
ATOM     11  C   LIG    1       -3.572  -0.522 -20.472  0.00  0.00    +0.384 C 
ATOM     12  O   LIG    1       -2.619  -1.119 -20.015  0.00  0.00    -0.446 OA
BRANCH  11  13
ATOM     13  C   LIG    1       -3.588  -0.130 -21.926  0.00  0.00    +0.044 C 
BRANCH  13  14
ATOM     14  C   LIG    1       -2.897   1.225 -22.096  0.00  0.00    +0.035 C 
BRANCH  14  15
ATOM     15  C   LIG    1       -1.382   1.043 -21.975  0.00  0.00    +0.066 C 
BRANCH  15  19
ATOM     16  C   LIG    1        0.015  -1.402 -25.187  0.00  0.00    -0.010 A 
ATOM     17  C   LIG    1        0.264  -1.772 -23.878  0.00  0.00    +0.001 A 
ATOM     18  C   LIG    1       -0.188  -0.980 -22.839  0.00  0.00    +0.004 A 
ATOM     19  C   LIG    1       -0.888   0.181 -23.108  0.00  0.00    -0.077 A 
ATOM     20  C   LIG    1       -1.137   0.551 -24.417  0.00  0.00    +0.004 A 
ATOM     21  C   LIG    1       -0.686  -0.241 -25.456  0.00  0.00    +0.001 A 
ENDBRANCH  15  19
ENDBRANCH  14  15
ENDBRANCH  13  14
ENDBRANCH  11  13
ENDBRANCH   1  11
BRANCH   4  22
ATOM     22  O   LIG    1       -7.905   0.786 -17.173  0.00  0.00    -0.481 OA
ATOM     23  H   LIG    1       -8.637   1.215 -17.637  0.00  0.00    +0.372 HD
ENDBRANCH   4  22
TORSDOF 7
ENDMDL
MODEL 9
REMARK VINA RESULT:      -6.5      7.879      8.502
REMARK  Name = CHEMBL8476
REMARK                            x       y       z     vdW  Elec       q    Type
REMARK                         _______ _______ _______ _____ _____    ______ ____
ROOT
ATOM      1  C   LIG    1       -0.498  -7.558 -22.553  0.00  0.00    -0.089 A 
ATOM      2  C   LIG    1       -1.609  -7.511 -23.402  0.00  0.00    -0.047 A 
ATOM      3  C   LIG    1       -1.711  -6.514 -24.348  0.00  0.00    +0.033 A 
ATOM      4  C   LIG    1       -0.712  -5.555 -24.460  0.00  0.00    +0.011 A 
ATOM      5  C   LIG    1        0.399  -5.596 -23.616  0.00  0.00    +0.273 A 
ATOM      6  O   LIG    1        1.374  -4.656 -23.731  0.00  0.00    -0.674 OA
ATOM      7  C   LIG    1        0.505  -6.588 -22.663  0.00  0.00    -0.138 A 
ENDROOT
BRANCH   7   8
ATOM      8  N   LIG    1        1.680  -6.630 -21.763  0.00  0.00    +0.078 N 
ATOM      9  O   LIG    1        1.633  -6.088 -20.683  0.00  0.00    -0.173 OA
ATOM     10  O   LIG    1        2.685  -7.204 -22.108  0.00  0.00    -0.172 OA
ENDBRANCH   7   8
BRANCH   1  11
ATOM     11  C   LIG    1       -0.389  -8.620 -21.543  0.00  0.00    +0.384 C 
ATOM     12  O   LIG    1        0.275  -9.609 -21.773  0.00  0.00    -0.446 OA
BRANCH  11  13
ATOM     13  C   LIG    1       -1.101  -8.480 -20.222  0.00  0.00    +0.044 C 
BRANCH  13  14
ATOM     14  C   LIG    1       -1.534  -9.863 -19.728  0.00  0.00    +0.035 C 
BRANCH  14  15
ATOM     15  C   LIG    1       -3.048  -9.871 -19.499  0.00  0.00    +0.066 C 
BRANCH  15  19
ATOM     16  C   LIG    1       -4.190 -13.558 -17.670  0.00  0.00    -0.010 A 
ATOM     17  C   LIG    1       -4.313 -12.372 -16.969  0.00  0.00    +0.001 A 
ATOM     18  C   LIG    1       -3.943 -11.179 -17.562  0.00  0.00    +0.004 A 
ATOM     19  C   LIG    1       -3.450 -11.172 -18.853  0.00  0.00    -0.077 A 
ATOM     20  C   LIG    1       -3.327 -12.358 -19.553  0.00  0.00    +0.004 A 
ATOM     21  C   LIG    1       -3.698 -13.551 -18.961  0.00  0.00    +0.001 A 
ENDBRANCH  15  19
ENDBRANCH  14  15
ENDBRANCH  13  14
ENDBRANCH  11  13
ENDBRANCH   1  11
BRANCH   4  22
ATOM     22  O   LIG    1       -0.817  -4.575 -25.393  0.00  0.00    -0.481 OA
ATOM     23  H   LIG    1       -0.369  -3.753 -25.153  0.00  0.00    +0.372 HD
ENDBRANCH   4  22
TORSDOF 7
ENDMDL
