MODEL 1
REMARK VINA RESULT:      -5.9      0.000      0.000
REMARK  Name = CHEMBL1091204
REMARK                            x       y       z     vdW  Elec       q    Type
REMARK                         _______ _______ _______ _____ _____    ______ ____
ROOT
ATOM      1  C   LIG    1        6.036  -7.405 -19.114  0.00  0.00    -0.263 A 
ATOM      2  C   LIG    1        6.682  -6.368 -19.717  0.00  0.00    +0.097 A 
ATOM      3 CL   LIG    1        7.057  -6.444 -21.410  0.00  0.00    -0.035 Cl
ATOM      4  C   LIG    1        7.043  -5.235 -18.965  0.00  0.00    -0.215 A 
ATOM      5  C   LIG    1        7.714  -4.065 -19.410  0.00  0.00    +0.108 A 
ATOM      6  C   LIG    1        7.993  -3.051 -18.548  0.00  0.00    +0.018 A 
ATOM      7  C   LIG    1        7.632  -3.121 -17.199  0.00  0.00    +0.330 A 
ATOM      8  O   LIG    1        7.922  -2.095 -16.357  0.00  0.00    -0.622 OA
ATOM      9  C   LIG    1        6.977  -4.246 -16.728  0.00  0.00    -0.165 A 
ATOM     10  C   LIG    1        6.690  -5.279 -17.595  0.00  0.00    +0.011 A 
ATOM     11  S   LIG    1        5.884  -6.851 -17.424  0.00  0.00    +0.113 S 
ENDROOT
BRANCH   9  12
ATOM     12  N   LIG    1        6.586  -4.340 -15.304  0.00  0.00    +0.062 N 
ATOM     13  O   LIG    1        5.825  -3.529 -14.831  0.00  0.00    -0.160 OA
ATOM     14  O   LIG    1        7.026  -5.230 -14.613  0.00  0.00    -0.161 OA
ENDBRANCH   9  12
BRANCH   1  15
ATOM     15  C   LIG    1        5.576  -8.663 -19.706  0.00  0.00    +0.560 C 
ATOM     16  O   LIG    1        6.069  -9.717 -19.352  0.00  0.00    -0.491 OA
BRANCH  15  17
ATOM     17  O   LIG    1        4.609  -8.653 -20.646  0.00  0.00    -0.341 OA
BRANCH  17  19
ATOM     18  C   LIG    1        2.882  -6.991 -20.960  0.00  0.00    +0.030 C 
ATOM     19  C   LIG    1        3.299  -8.267 -20.225  0.00  0.00    +0.165 C 
ATOM     20  C   LIG    1        2.309  -9.388 -20.547  0.00  0.00    +0.061 C 
ENDBRANCH  17  19
ENDBRANCH  15  17
ENDBRANCH   1  15
BRANCH   6  21
ATOM     21  O   LIG    1        8.638  -1.946 -19.008  0.00  0.00    -0.478 OA
ATOM     22  H   LIG    1        9.001  -1.384 -18.309  0.00  0.00    +0.378 HD
ENDBRANCH   6  21
TORSDOF 5
ENDMDL
MODEL 2
REMARK VINA RESULT:      -5.7     11.577     13.144
REMARK  Name = CHEMBL1091204
REMARK                            x       y       z     vdW  Elec       q    Type
REMARK                         _______ _______ _______ _____ _____    ______ ____
ROOT
ATOM      1  C   LIG    1       -2.627 -15.080 -20.988  0.00  0.00    -0.263 A 
ATOM      2  C   LIG    1       -3.085 -15.142 -19.707  0.00  0.00    +0.097 A 
ATOM      3 CL   LIG    1       -3.235 -16.678 -18.911  0.00  0.00    -0.035 Cl
ATOM      4  C   LIG    1       -3.435 -13.960 -19.029  0.00  0.00    -0.215 A 
ATOM      5  C   LIG    1       -3.926 -13.822 -17.704  0.00  0.00    +0.108 A 
ATOM      6  C   LIG    1       -4.220 -12.597 -17.194  0.00  0.00    +0.018 A 
ATOM      7  C   LIG    1       -4.052 -11.432 -17.950  0.00  0.00    +0.330 A 
ATOM      8  O   LIG    1       -4.354 -10.219 -17.418  0.00  0.00    -0.622 OA
ATOM      9  C   LIG    1       -3.576 -11.527 -19.246  0.00  0.00    -0.165 A 
ATOM     10  C   LIG    1       -3.275 -12.765 -19.771  0.00  0.00    +0.011 A 
ATOM     11  S   LIG    1       -2.652 -13.329 -21.335  0.00  0.00    +0.113 S 
ENDROOT
BRANCH   9  12
ATOM     12  N   LIG    1       -3.390 -10.308 -20.064  0.00  0.00    +0.062 N 
ATOM     13  O   LIG    1       -2.524  -9.514 -19.778  0.00  0.00    -0.160 OA
ATOM     14  O   LIG    1       -4.105 -10.105 -21.018  0.00  0.00    -0.161 OA
ENDBRANCH   9  12
BRANCH   1  15
ATOM     15  C   LIG    1       -2.214 -16.178 -21.865  0.00  0.00    +0.560 C 
ATOM     16  O   LIG    1       -1.078 -16.609 -21.804  0.00  0.00    -0.491 OA
BRANCH  15  17
ATOM     17  O   LIG    1       -3.090 -16.708 -22.743  0.00  0.00    -0.341 OA
BRANCH  17  19
ATOM     18  C   LIG    1       -5.303 -16.332 -23.640  0.00  0.00    +0.030 C 
ATOM     19  C   LIG    1       -4.475 -16.648 -22.393  0.00  0.00    +0.165 C 
ATOM     20  C   LIG    1       -4.913 -17.996 -21.818  0.00  0.00    +0.061 C 
ENDBRANCH  17  19
ENDBRANCH  15  17
ENDBRANCH   1  15
BRANCH   6  21
ATOM     21  O   LIG    1       -4.690 -12.501 -15.921  0.00  0.00    -0.478 OA
ATOM     22  H   LIG    1       -4.039 -12.735 -15.244  0.00  0.00    +0.378 HD
ENDBRANCH   6  21
TORSDOF 5
ENDMDL
MODEL 3
REMARK VINA RESULT:      -5.6      1.272      2.515
REMARK  Name = CHEMBL1091204
REMARK                            x       y       z     vdW  Elec       q    Type
REMARK                         _______ _______ _______ _____ _____    ______ ____
ROOT
ATOM      1  C   LIG    1        6.059  -7.515 -18.982  0.00  0.00    -0.263 A 
ATOM      2  C   LIG    1        6.701  -6.506 -19.635  0.00  0.00    +0.097 A 
ATOM      3 CL   LIG    1        7.091  -6.671 -21.319  0.00  0.00    -0.035 Cl
ATOM      4  C   LIG    1        7.046  -5.331 -18.943  0.00  0.00    -0.215 A 
ATOM      5  C   LIG    1        7.710  -4.181 -19.446  0.00  0.00    +0.108 A 
ATOM      6  C   LIG    1        7.973  -3.119 -18.638  0.00  0.00    +0.018 A 
ATOM      7  C   LIG    1        7.601  -3.119 -17.290  0.00  0.00    +0.330 A 
ATOM      8  O   LIG    1        7.875  -2.046 -16.503  0.00  0.00    -0.622 OA
ATOM      9  C   LIG    1        6.953  -4.223 -16.764  0.00  0.00    -0.165 A 
ATOM     10  C   LIG    1        6.682  -5.303 -17.575  0.00  0.00    +0.011 A 
ATOM     11  S   LIG    1        5.888  -6.871 -17.326  0.00  0.00    +0.113 S 
ENDROOT
BRANCH   9  12
ATOM     12  N   LIG    1        6.550  -4.243 -15.340  0.00  0.00    +0.062 N 
ATOM     13  O   LIG    1        6.989  -5.093 -14.600  0.00  0.00    -0.160 OA
ATOM     14  O   LIG    1        5.784  -3.409 -14.915  0.00  0.00    -0.161 OA
ENDBRANCH   9  12
BRANCH   1  15
ATOM     15  C   LIG    1        5.615  -8.808 -19.508  0.00  0.00    +0.560 C 
ATOM     16  O   LIG    1        4.427  -9.037 -19.634  0.00  0.00    -0.491 OA
BRANCH  15  17
ATOM     17  O   LIG    1        6.523  -9.745 -19.851  0.00  0.00    -0.341 OA
BRANCH  17  19
ATOM     18  C   LIG    1        7.420 -11.479 -18.427  0.00  0.00    +0.030 C 
ATOM     19  C   LIG    1        7.552 -10.030 -18.901  0.00  0.00    +0.165 C 
ATOM     20  C   LIG    1        8.920  -9.829 -19.555  0.00  0.00    +0.061 C 
ENDBRANCH  17  19
ENDBRANCH  15  17
ENDBRANCH   1  15
BRANCH   6  21
ATOM     21  O   LIG    1        8.612  -2.034 -19.153  0.00  0.00    -0.478 OA
ATOM     22  H   LIG    1        9.464  -2.238 -19.564  0.00  0.00    +0.378 HD
ENDBRANCH   6  21
TORSDOF 5
ENDMDL
MODEL 4
REMARK VINA RESULT:      -5.5     11.353     12.726
REMARK  Name = CHEMBL1091204
REMARK                            x       y       z     vdW  Elec       q    Type
REMARK                         _______ _______ _______ _____ _____    ______ ____
ROOT
ATOM      1  C   LIG    1       -2.432 -14.928 -20.955  0.00  0.00    -0.263 A 
ATOM      2  C   LIG    1       -2.961 -15.036 -19.704  0.00  0.00    +0.097 A 
ATOM      3 CL   LIG    1       -3.129 -16.598 -18.964  0.00  0.00    -0.035 Cl
ATOM      4  C   LIG    1       -3.368 -13.881 -19.013  0.00  0.00    -0.215 A 
ATOM      5  C   LIG    1       -3.935 -13.791 -17.714  0.00  0.00    +0.108 A 
ATOM      6  C   LIG    1       -4.279 -12.586 -17.185  0.00  0.00    +0.018 A 
ATOM      7  C   LIG    1       -4.088 -11.397 -17.896  0.00  0.00    +0.330 A 
ATOM      8  O   LIG    1       -4.440 -10.205 -17.346  0.00  0.00    -0.622 OA
ATOM      9  C   LIG    1       -3.538 -11.445 -19.165  0.00  0.00    -0.165 A 
ATOM     10  C   LIG    1       -3.187 -12.662 -19.709  0.00  0.00    +0.011 A 
ATOM     11  S   LIG    1       -2.467 -13.168 -21.250  0.00  0.00    +0.113 S 
ENDROOT
BRANCH   9  12
ATOM     12  N   LIG    1       -3.328 -10.198 -19.935  0.00  0.00    +0.062 N 
ATOM     13  O   LIG    1       -2.459  -9.424 -19.605  0.00  0.00    -0.160 OA
ATOM     14  O   LIG    1       -4.023  -9.955 -20.894  0.00  0.00    -0.161 OA
ENDBRANCH   9  12
BRANCH   1  15
ATOM     15  C   LIG    1       -1.951 -15.992 -21.839  0.00  0.00    +0.560 C 
ATOM     16  O   LIG    1       -2.746 -16.662 -22.472  0.00  0.00    -0.491 OA
BRANCH  15  17
ATOM     17  O   LIG    1       -0.629 -16.231 -21.950  0.00  0.00    -0.341 OA
BRANCH  17  19
ATOM     18  C   LIG    1        0.484 -18.065 -20.837  0.00  0.00    +0.030 C 
ATOM     19  C   LIG    1        0.068 -16.595 -20.757  0.00  0.00    +0.165 C 
ATOM     20  C   LIG    1        1.313 -15.720 -20.606  0.00  0.00    +0.061 C 
ENDBRANCH  17  19
ENDBRANCH  15  17
ENDBRANCH   1  15
BRANCH   6  21
ATOM     21  O   LIG    1       -4.821 -12.537 -15.939  0.00  0.00    -0.478 OA
ATOM     22  H   LIG    1       -5.773 -12.363 -15.931  0.00  0.00    +0.378 HD
ENDBRANCH   6  21
TORSDOF 5
ENDMDL
MODEL 5
REMARK VINA RESULT:      -5.4      7.786      9.766
REMARK  Name = CHEMBL1091204
REMARK                            x       y       z     vdW  Elec       q    Type
REMARK                         _______ _______ _______ _____ _____    ______ ____
ROOT
ATOM      1  C   LIG    1       -2.300 -10.562 -21.156  0.00  0.00    -0.263 A 
ATOM      2  C   LIG    1       -2.782  -9.774 -22.157  0.00  0.00    +0.097 A 
ATOM      3 CL   LIG    1       -4.314 -10.140 -22.889  0.00  0.00    -0.035 Cl
ATOM      4  C   LIG    1       -2.038  -8.664 -22.596  0.00  0.00    -0.215 A 
ATOM      5  C   LIG    1       -2.371  -7.734 -23.617  0.00  0.00    +0.108 A 
ATOM      6  C   LIG    1       -1.535  -6.707 -23.923  0.00  0.00    +0.018 A 
ATOM      7  C   LIG    1       -0.322  -6.528 -23.250  0.00  0.00    +0.330 A 
ATOM      8  O   LIG    1        0.497  -5.494 -23.575  0.00  0.00    -0.622 OA
ATOM      9  C   LIG    1        0.037  -7.415 -22.250  0.00  0.00    -0.165 A 
ATOM     10  C   LIG    1       -0.805  -8.459 -21.932  0.00  0.00    +0.011 A 
ATOM     11  S   LIG    1       -0.745  -9.783 -20.751  0.00  0.00    +0.113 S 
ENDROOT
BRANCH   9  12
ATOM     12  N   LIG    1        1.316  -7.244 -21.524  0.00  0.00    +0.062 N 
ATOM     13  O   LIG    1        2.257  -7.958 -21.782  0.00  0.00    -0.160 OA
ATOM     14  O   LIG    1        1.420  -6.390 -20.675  0.00  0.00    -0.161 OA
ENDBRANCH   9  12
BRANCH   1  15
ATOM     15  C   LIG    1       -2.907 -11.752 -20.556  0.00  0.00    +0.560 C 
ATOM     16  O   LIG    1       -2.475 -12.856 -20.827  0.00  0.00    -0.491 OA
BRANCH  15  17
ATOM     17  O   LIG    1       -3.946 -11.624 -19.706  0.00  0.00    -0.341 OA
BRANCH  17  19
ATOM     18  C   LIG    1       -4.520  -9.980 -18.030  0.00  0.00    +0.030 C 
ATOM     19  C   LIG    1       -3.648 -11.188 -18.378  0.00  0.00    +0.165 C 
ATOM     20  C   LIG    1       -3.932 -12.324 -17.393  0.00  0.00    +0.061 C 
ENDBRANCH  17  19
ENDBRANCH  15  17
ENDBRANCH   1  15
BRANCH   6  21
ATOM     21  O   LIG    1       -1.884  -5.835 -24.907  0.00  0.00    -0.478 OA
ATOM     22  H   LIG    1       -1.310  -5.869 -25.685  0.00  0.00    +0.378 HD
ENDBRANCH   6  21
TORSDOF 5
ENDMDL
MODEL 6
REMARK VINA RESULT:      -5.1     12.321     14.881
REMARK  Name = CHEMBL1091204
REMARK                            x       y       z     vdW  Elec       q    Type
REMARK                         _______ _______ _______ _____ _____    ______ ____
ROOT
ATOM      1  C   LIG    1       -5.553  -2.279 -20.228  0.00  0.00    -0.263 A 
ATOM      2  C   LIG    1       -6.335  -2.451 -21.330  0.00  0.00    +0.097 A 
ATOM      3 CL   LIG    1       -5.989  -1.574 -22.788  0.00  0.00    -0.035 Cl
ATOM      4  C   LIG    1       -7.423  -3.342 -21.285  0.00  0.00    -0.215 A 
ATOM      5  C   LIG    1       -8.345  -3.653 -22.320  0.00  0.00    +0.108 A 
ATOM      6  C   LIG    1       -9.351  -4.544 -22.112  0.00  0.00    +0.018 A 
ATOM      7  C   LIG    1       -9.516  -5.183 -20.879  0.00  0.00    +0.330 A 
ATOM      8  O   LIG    1      -10.530  -6.069 -20.697  0.00  0.00    -0.622 OA
ATOM      9  C   LIG    1       -8.638  -4.905 -19.847  0.00  0.00    -0.165 A 
ATOM     10  C   LIG    1       -7.615  -4.003 -20.048  0.00  0.00    +0.011 A 
ATOM     11  S   LIG    1       -6.299  -3.377 -19.035  0.00  0.00    +0.113 S 
ENDROOT
BRANCH   9  12
ATOM     12  N   LIG    1       -8.795  -5.570 -18.534  0.00  0.00    +0.062 N 
ATOM     13  O   LIG    1       -8.277  -6.644 -18.335  0.00  0.00    -0.160 OA
ATOM     14  O   LIG    1       -9.440  -5.039 -17.660  0.00  0.00    -0.161 OA
ENDBRANCH   9  12
BRANCH   1  15
ATOM     15  C   LIG    1       -4.385  -1.410 -20.063  0.00  0.00    +0.560 C 
ATOM     16  O   LIG    1       -3.543  -1.677 -19.227  0.00  0.00    -0.491 OA
BRANCH  15  17
ATOM     17  O   LIG    1       -4.245  -0.314 -20.836  0.00  0.00    -0.341 OA
BRANCH  17  19
ATOM     18  C   LIG    1       -2.746   1.485 -21.434  0.00  0.00    +0.030 C 
ATOM     19  C   LIG    1       -3.475   0.764 -20.299  0.00  0.00    +0.165 C 
ATOM     20  C   LIG    1       -4.403   1.747 -19.583  0.00  0.00    +0.061 C 
ENDBRANCH  17  19
ENDBRANCH  15  17
ENDBRANCH   1  15
BRANCH   6  21
ATOM     21  O   LIG    1      -10.216  -4.818 -23.125  0.00  0.00    -0.478 OA
ATOM     22  H   LIG    1      -10.496  -5.743 -23.163  0.00  0.00    +0.378 HD
ENDBRANCH   6  21
TORSDOF 5
ENDMDL
MODEL 7
REMARK VINA RESULT:      -5.0      7.526     10.047
REMARK  Name = CHEMBL1091204
REMARK                            x       y       z     vdW  Elec       q    Type
REMARK                         _______ _______ _______ _____ _____    ______ ____
ROOT
ATOM      1  C   LIG    1       -2.794  -9.694 -22.310  0.00  0.00    -0.263 A 
ATOM      2  C   LIG    1       -1.835  -9.238 -21.456  0.00  0.00    +0.097 A 
ATOM      3 CL   LIG    1       -1.621  -9.992 -19.907  0.00  0.00    -0.035 Cl
ATOM      4  C   LIG    1       -1.019  -8.156 -21.832  0.00  0.00    -0.215 A 
ATOM      5  C   LIG    1        0.024  -7.544 -21.087  0.00  0.00    +0.108 A 
ATOM      6  C   LIG    1        0.723  -6.496 -21.598  0.00  0.00    +0.018 A 
ATOM      7  C   LIG    1        0.444  -5.983 -22.869  0.00  0.00    +0.330 A 
ATOM      8  O   LIG    1        1.157  -4.935 -23.357  0.00  0.00    -0.622 OA
ATOM      9  C   LIG    1       -0.566  -6.553 -23.624  0.00  0.00    -0.165 A 
ATOM     10  C   LIG    1       -1.280  -7.616 -23.115  0.00  0.00    +0.011 A 
ATOM     11  S   LIG    1       -2.609  -8.622 -23.725  0.00  0.00    +0.113 S 
ENDROOT
BRANCH   9  12
ATOM     12  N   LIG    1       -0.878  -6.026 -24.972  0.00  0.00    +0.062 N 
ATOM     13  O   LIG    1       -1.744  -5.194 -25.110  0.00  0.00    -0.160 OA
ATOM     14  O   LIG    1       -0.265  -6.426 -25.935  0.00  0.00    -0.161 OA
ENDBRANCH   9  12
BRANCH   1  15
ATOM     15  C   LIG    1       -3.740 -10.795 -22.118  0.00  0.00    +0.560 C 
ATOM     16  O   LIG    1       -4.928 -10.616 -22.310  0.00  0.00    -0.491 OA
BRANCH  15  17
ATOM     17  O   LIG    1       -3.296 -12.007 -21.725  0.00  0.00    -0.341 OA
BRANCH  17  19
ATOM     18  C   LIG    1       -3.882 -14.331 -21.418  0.00  0.00    +0.030 C 
ATOM     19  C   LIG    1       -4.246 -12.878 -21.108  0.00  0.00    +0.165 C 
ATOM     20  C   LIG    1       -4.230 -12.660 -19.594  0.00  0.00    +0.061 C 
ENDBRANCH  17  19
ENDBRANCH  15  17
ENDBRANCH   1  15
BRANCH   6  21
ATOM     21  O   LIG    1        1.715  -5.934 -20.856  0.00  0.00    -0.478 OA
ATOM     22  H   LIG    1        2.589  -5.979 -21.270  0.00  0.00    +0.378 HD
ENDBRANCH   6  21
TORSDOF 5
ENDMDL
MODEL 8
REMARK VINA RESULT:      -5.0      7.259      9.604
REMARK  Name = CHEMBL1091204
REMARK                            x       y       z     vdW  Elec       q    Type
REMARK                         _______ _______ _______ _____ _____    ______ ____
ROOT
ATOM      1  C   LIG    1       -2.083 -10.993 -20.833  0.00  0.00    -0.263 A 
ATOM      2  C   LIG    1       -1.737  -9.751 -20.393  0.00  0.00    +0.097 A 
ATOM      3 CL   LIG    1       -2.688  -8.967 -19.170  0.00  0.00    -0.035 Cl
ATOM      4  C   LIG    1       -0.608  -9.106 -20.929  0.00  0.00    -0.215 A 
ATOM      5  C   LIG    1       -0.093  -7.823 -20.601  0.00  0.00    +0.108 A 
ATOM      6  C   LIG    1        1.018  -7.340 -21.219  0.00  0.00    +0.018 A 
ATOM      7  C   LIG    1        1.691  -8.082 -22.194  0.00  0.00    +0.330 A 
ATOM      8  O   LIG    1        2.799  -7.577 -22.797  0.00  0.00    -0.622 OA
ATOM      9  C   LIG    1        1.218  -9.336 -22.540  0.00  0.00    -0.165 A 
ATOM     10  C   LIG    1        0.093  -9.834 -21.920  0.00  0.00    +0.011 A 
ATOM     11  S   LIG    1       -0.823 -11.349 -22.047  0.00  0.00    +0.113 S 
ENDROOT
BRANCH   9  12
ATOM     12  N   LIG    1        1.916 -10.138 -23.570  0.00  0.00    +0.062 N 
ATOM     13  O   LIG    1        1.631 -10.004 -24.737  0.00  0.00    -0.160 OA
ATOM     14  O   LIG    1        2.773 -10.927 -23.244  0.00  0.00    -0.161 OA
ENDBRANCH   9  12
BRANCH   1  15
ATOM     15  C   LIG    1       -3.208 -11.832 -20.413  0.00  0.00    +0.560 C 
ATOM     16  O   LIG    1       -4.314 -11.643 -20.881  0.00  0.00    -0.491 OA
BRANCH  15  17
ATOM     17  O   LIG    1       -3.017 -12.811 -19.506  0.00  0.00    -0.341 OA
BRANCH  17  19
ATOM     18  C   LIG    1       -3.808 -14.240 -17.724  0.00  0.00    +0.030 C 
ATOM     19  C   LIG    1       -3.955 -12.890 -18.430  0.00  0.00    +0.165 C 
ATOM     20  C   LIG    1       -3.685 -11.762 -17.434  0.00  0.00    +0.061 C 
ENDBRANCH  17  19
ENDBRANCH  15  17
ENDBRANCH   1  15
BRANCH   6  21
ATOM     21  O   LIG    1        1.483  -6.107 -20.881  0.00  0.00    -0.478 OA
ATOM     22  H   LIG    1        1.741  -6.026 -19.952  0.00  0.00    +0.378 HD
ENDBRANCH   6  21
TORSDOF 5
ENDMDL
MODEL 9
REMARK VINA RESULT:      -5.0      1.961      3.161
REMARK  Name = CHEMBL1091204
REMARK                            x       y       z     vdW  Elec       q    Type
REMARK                         _______ _______ _______ _____ _____    ______ ____
ROOT
ATOM      1  C   LIG    1        6.693  -6.620 -20.209  0.00  0.00    -0.263 A 
ATOM      2  C   LIG    1        6.465  -6.599 -18.866  0.00  0.00    +0.097 A 
ATOM      3 CL   LIG    1        5.768  -7.983 -18.081  0.00  0.00    -0.035 Cl
ATOM      4  C   LIG    1        6.795  -5.456 -18.117  0.00  0.00    -0.215 A 
ATOM      5  C   LIG    1        6.634  -5.246 -16.721  0.00  0.00    +0.108 A 
ATOM      6  C   LIG    1        7.007  -4.071 -16.146  0.00  0.00    +0.018 A 
ATOM      7  C   LIG    1        7.559  -3.032 -16.902  0.00  0.00    +0.330 A 
ATOM      8  O   LIG    1        7.923  -1.867 -16.303  0.00  0.00    -0.622 OA
ATOM      9  C   LIG    1        7.730  -3.200 -18.264  0.00  0.00    -0.165 A 
ATOM     10  C   LIG    1        7.356  -4.387 -18.856  0.00  0.00    +0.011 A 
ATOM     11  S   LIG    1        7.404  -5.012 -20.517  0.00  0.00    +0.113 S 
ENDROOT
BRANCH   9  12
ATOM     12  N   LIG    1        8.313  -2.112 -19.083  0.00  0.00    +0.062 N 
ATOM     13  O   LIG    1        9.509  -2.052 -19.244  0.00  0.00    -0.160 OA
ATOM     14  O   LIG    1        7.591  -1.285 -19.591  0.00  0.00    -0.161 OA
ENDBRANCH   9  12
BRANCH   1  15
ATOM     15  C   LIG    1        6.425  -7.697 -21.165  0.00  0.00    +0.560 C 
ATOM     16  O   LIG    1        7.290  -8.514 -21.418  0.00  0.00    -0.491 OA
BRANCH  15  17
ATOM     17  O   LIG    1        5.221  -7.782 -21.767  0.00  0.00    -0.341 OA
BRANCH  17  19
ATOM     18  C   LIG    1        3.795  -6.126 -22.800  0.00  0.00    +0.030 C 
ATOM     19  C   LIG    1        4.281  -6.742 -21.486  0.00  0.00    +0.165 C 
ATOM     20  C   LIG    1        3.089  -7.324 -20.724  0.00  0.00    +0.061 C 
ENDBRANCH  17  19
ENDBRANCH  15  17
ENDBRANCH   1  15
BRANCH   6  21
ATOM     21  O   LIG    1        6.838  -3.904 -14.807  0.00  0.00    -0.478 OA
ATOM     22  H   LIG    1        7.654  -3.697 -14.330  0.00  0.00    +0.378 HD
ENDBRANCH   6  21
TORSDOF 5
ENDMDL
