MODEL 1
REMARK VINA RESULT:      -7.2      0.000      0.000
REMARK  Name = CHEMBL168389
REMARK                            x       y       z     vdW  Elec       q    Type
REMARK                         _______ _______ _______ _____ _____    ______ ____
ROOT
ATOM      1  C   LIG    1       -6.451  -3.175 -19.855  0.00  0.00    -0.090 A 
ATOM      2  C   LIG    1       -7.205  -3.358 -21.024  0.00  0.00    +0.159 A 
ATOM      3  C   LIG    1       -8.297  -4.197 -21.012  0.00  0.00    -0.068 A 
ATOM      4  C   LIG    1       -8.655  -4.861 -19.846  0.00  0.00    +0.173 A 
ATOM      5  C   LIG    1       -7.910  -4.684 -18.678  0.00  0.00    +0.090 A 
ATOM      6  C   LIG    1       -6.810  -3.851 -18.681  0.00  0.00    +0.095 A 
ENDROOT
BRANCH   3   7
ATOM      7  N   LIG    1       -9.092  -4.389 -22.245  0.00  0.00    +0.034 N 
ATOM      8  O   LIG    1       -9.522  -5.485 -22.522  0.00  0.00    -0.128 OA
ATOM      9  O   LIG    1       -9.310  -3.451 -22.977  0.00  0.00    -0.154 OA
ENDBRANCH   3   7
BRANCH   1  11
ATOM     10  C   LIG    1       -5.395  -1.006 -19.363  0.00  0.00    -0.111 C 
ATOM     11  C   LIG    1       -5.288  -2.285 -19.865  0.00  0.00    +0.245 C 
BRANCH  10  14
ATOM     12  C   LIG    1       -2.683   1.152 -20.905  0.00  0.00    +0.303 C 
ATOM     13  N   LIG    1       -3.791   0.207 -20.748  0.00  0.00    -0.612 N 
ATOM     14  C   LIG    1       -4.283  -0.056 -19.521  0.00  0.00    +0.571 C 
ATOM     15  O   LIG    1       -3.807   0.491 -18.545  0.00  0.00    -0.519 OA
ATOM     16  C   LIG    1       -4.364  -0.453 -21.923  0.00  0.00    +0.284 C 
ENDBRANCH  10  14
BRANCH  10  17
ATOM     17  C   LIG    1       -6.590  -0.601 -18.685  0.00  0.00    +0.249 C 
ATOM     18  N   LIG    1       -7.537  -0.281 -18.146  0.00  0.00    -0.402 NA
ENDBRANCH  10  17
ENDBRANCH   1  11
BRANCH   4  19
ATOM     19  O   LIG    1       -9.734  -5.686 -19.841  0.00  0.00    -0.458 OA
ATOM     20  H   LIG    1      -10.398  -5.461 -19.175  0.00  0.00    +0.408 HD
ENDBRANCH   4  19
BRANCH   5  21
ATOM     21  O   LIG    1       -8.266  -5.336 -17.540  0.00  0.00    -0.469 OA
ATOM     22  H   LIG    1       -7.517  -5.644 -17.012  0.00  0.00    +0.400 HD
ENDBRANCH   5  21
TORSDOF 6
ENDMDL
MODEL 2
REMARK VINA RESULT:      -6.8      2.758      4.479
REMARK  Name = CHEMBL168389
REMARK                            x       y       z     vdW  Elec       q    Type
REMARK                         _______ _______ _______ _____ _____    ______ ____
ROOT
ATOM      1  C   LIG    1       -4.394  -0.124 -19.776  0.00  0.00    -0.090 A 
ATOM      2  C   LIG    1       -4.898  -1.428 -19.887  0.00  0.00    +0.159 A 
ATOM      3  C   LIG    1       -6.121  -1.741 -19.341  0.00  0.00    -0.068 A 
ATOM      4  C   LIG    1       -6.861  -0.768 -18.679  0.00  0.00    +0.173 A 
ATOM      5  C   LIG    1       -6.368   0.533 -18.564  0.00  0.00    +0.090 A 
ATOM      6  C   LIG    1       -5.139   0.855 -19.102  0.00  0.00    +0.095 A 
ENDROOT
BRANCH   3   7
ATOM      7  N   LIG    1       -6.652  -3.118 -19.459  0.00  0.00    +0.034 N 
ATOM      8  O   LIG    1       -5.971  -4.058 -19.124  0.00  0.00    -0.128 OA
ATOM      9  O   LIG    1       -7.766  -3.301 -19.892  0.00  0.00    -0.154 OA
ENDBRANCH   3   7
BRANCH   1  11
ATOM     10  C   LIG    1       -2.863   0.010 -21.699  0.00  0.00    -0.111 C 
ATOM     11  C   LIG    1       -3.092   0.213 -20.355  0.00  0.00    +0.245 C 
BRANCH  10  14
ATOM     12  C   LIG    1        0.097   1.398 -23.623  0.00  0.00    +0.303 C 
ATOM     13  N   LIG    1       -1.249   1.222 -23.074  0.00  0.00    -0.612 N 
ATOM     14  C   LIG    1       -1.511   0.188 -22.251  0.00  0.00    +0.571 C 
ATOM     15  O   LIG    1       -0.629  -0.599 -21.964  0.00  0.00    -0.519 OA
ATOM     16  C   LIG    1       -2.311   2.170 -23.419  0.00  0.00    +0.284 C 
ENDBRANCH  10  14
BRANCH  10  17
ATOM     17  C   LIG    1       -3.942  -0.372 -22.560  0.00  0.00    +0.249 C 
ATOM     18  N   LIG    1       -4.797  -0.676 -23.243  0.00  0.00    -0.402 NA
ENDBRANCH  10  17
ENDBRANCH   1  11
BRANCH   4  19
ATOM     19  O   LIG    1       -8.068  -1.084 -18.143  0.00  0.00    -0.458 OA
ATOM     20  H   LIG    1       -8.015  -1.487 -17.265  0.00  0.00    +0.408 HD
ENDBRANCH   4  19
BRANCH   5  21
ATOM     21  O   LIG    1       -7.096   1.480 -17.916  0.00  0.00    -0.469 OA
ATOM     22  H   LIG    1       -6.622   2.310 -17.772  0.00  0.00    +0.400 HD
ENDBRANCH   5  21
TORSDOF 6
ENDMDL
MODEL 3
REMARK VINA RESULT:      -6.4      8.473     10.354
REMARK  Name = CHEMBL168389
REMARK                            x       y       z     vdW  Elec       q    Type
REMARK                         _______ _______ _______ _____ _____    ______ ____
ROOT
ATOM      1  C   LIG    1       -3.461 -11.570 -19.136  0.00  0.00    -0.090 A 
ATOM      2  C   LIG    1       -4.125 -10.416 -18.695  0.00  0.00    +0.159 A 
ATOM      3  C   LIG    1       -4.821 -10.436 -17.508  0.00  0.00    -0.068 A 
ATOM      4  C   LIG    1       -4.868 -11.596 -16.743  0.00  0.00    +0.173 A 
ATOM      5  C   LIG    1       -4.209 -12.748 -17.175  0.00  0.00    +0.090 A 
ATOM      6  C   LIG    1       -3.514 -12.741 -18.367  0.00  0.00    +0.095 A 
ENDROOT
BRANCH   3   7
ATOM      7  N   LIG    1       -5.522  -9.218 -17.043  0.00  0.00    +0.034 N 
ATOM      8  O   LIG    1       -5.024  -8.130 -17.220  0.00  0.00    -0.128 OA
ATOM      9  O   LIG    1       -6.591  -9.310 -16.486  0.00  0.00    -0.154 OA
ENDBRANCH   3   7
BRANCH   1  11
ATOM     10  C   LIG    1       -3.286 -12.086 -21.537  0.00  0.00    -0.111 C 
ATOM     11  C   LIG    1       -2.720 -11.553 -20.399  0.00  0.00    +0.245 C 
BRANCH  10  14
ATOM     12  C   LIG    1       -1.637 -11.346 -24.872  0.00  0.00    +0.303 C 
ATOM     13  N   LIG    1       -2.434 -11.209 -23.651  0.00  0.00    -0.612 N 
ATOM     14  C   LIG    1       -2.485 -12.222 -22.764  0.00  0.00    +0.571 C 
ATOM     15  O   LIG    1       -1.869 -13.249 -22.976  0.00  0.00    -0.519 OA
ATOM     16  C   LIG    1       -3.176  -9.973 -23.394  0.00  0.00    +0.284 C 
ENDBRANCH  10  14
BRANCH  10  17
ATOM     17  C   LIG    1       -4.655 -12.507 -21.526  0.00  0.00    +0.249 C 
ATOM     18  N   LIG    1       -5.741 -12.840 -21.519  0.00  0.00    -0.402 NA
ENDBRANCH  10  17
ENDBRANCH   1  11
BRANCH   4  19
ATOM     19  O   LIG    1       -5.556 -11.607 -15.573  0.00  0.00    -0.458 OA
ATOM     20  H   LIG    1       -6.397 -12.083 -15.616  0.00  0.00    +0.408 HD
ENDBRANCH   4  19
BRANCH   5  21
ATOM     21  O   LIG    1       -4.257 -13.880 -16.422  0.00  0.00    -0.469 OA
ATOM     22  H   LIG    1       -3.816 -13.802 -15.566  0.00  0.00    +0.400 HD
ENDBRANCH   5  21
TORSDOF 6
ENDMDL
MODEL 4
REMARK VINA RESULT:      -6.3      8.391      9.859
REMARK  Name = CHEMBL168389
REMARK                            x       y       z     vdW  Elec       q    Type
REMARK                         _______ _______ _______ _____ _____    ______ ____
ROOT
ATOM      1  C   LIG    1       -3.399 -10.183 -18.999  0.00  0.00    -0.090 A 
ATOM      2  C   LIG    1       -3.279 -11.551 -18.713  0.00  0.00    +0.159 A 
ATOM      3  C   LIG    1       -3.989 -12.100 -17.669  0.00  0.00    -0.068 A 
ATOM      4  C   LIG    1       -4.825 -11.302 -16.897  0.00  0.00    +0.173 A 
ATOM      5  C   LIG    1       -4.950  -9.940 -17.174  0.00  0.00    +0.090 A 
ATOM      6  C   LIG    1       -4.238  -9.379 -18.214  0.00  0.00    +0.095 A 
ENDROOT
BRANCH   3   7
ATOM      7  N   LIG    1       -3.862 -13.543 -17.369  0.00  0.00    +0.034 N 
ATOM      8  O   LIG    1       -3.840 -13.922 -16.221  0.00  0.00    -0.128 OA
ATOM      9  O   LIG    1       -3.779 -14.343 -18.272  0.00  0.00    -0.154 OA
ENDBRANCH   3   7
BRANCH   1  11
ATOM     10  C   LIG    1       -2.900  -9.996 -21.402  0.00  0.00    -0.111 C 
ATOM     11  C   LIG    1       -2.645  -9.596 -20.109  0.00  0.00    +0.245 C 
BRANCH  10  14
ATOM     12  C   LIG    1       -0.070  -9.775 -23.919  0.00  0.00    +0.303 C 
ATOM     13  N   LIG    1       -0.931 -10.235 -22.827  0.00  0.00    -0.612 N 
ATOM     14  C   LIG    1       -2.035  -9.535 -22.499  0.00  0.00    +0.571 C 
ATOM     15  O   LIG    1       -2.316  -8.522 -23.111  0.00  0.00    -0.519 OA
ATOM     16  C   LIG    1       -0.593 -11.455 -22.090  0.00  0.00    +0.284 C 
ENDBRANCH  10  14
BRANCH  10  17
ATOM     17  C   LIG    1       -4.008 -10.860 -21.680  0.00  0.00    +0.249 C 
ATOM     18  N   LIG    1       -4.886 -11.545 -21.898  0.00  0.00    -0.402 NA
ENDBRANCH  10  17
ENDBRANCH   1  11
BRANCH   4  19
ATOM     19  O   LIG    1       -5.522 -11.850 -15.869  0.00  0.00    -0.458 OA
ATOM     20  H   LIG    1       -5.102 -11.738 -15.005  0.00  0.00    +0.408 HD
ENDBRANCH   4  19
BRANCH   5  21
ATOM     21  O   LIG    1       -5.770  -9.165 -16.415  0.00  0.00    -0.469 OA
ATOM     22  H   LIG    1       -6.422  -8.666 -16.925  0.00  0.00    +0.400 HD
ENDBRANCH   5  21
TORSDOF 6
ENDMDL
MODEL 5
REMARK VINA RESULT:      -5.8      8.519      9.809
REMARK  Name = CHEMBL168389
REMARK                            x       y       z     vdW  Elec       q    Type
REMARK                         _______ _______ _______ _____ _____    ______ ____
ROOT
ATOM      1  C   LIG    1       -3.793 -11.405 -20.010  0.00  0.00    -0.090 A 
ATOM      2  C   LIG    1       -4.371 -10.508 -19.101  0.00  0.00    +0.159 A 
ATOM      3  C   LIG    1       -4.621 -10.906 -17.807  0.00  0.00    -0.068 A 
ATOM      4  C   LIG    1       -4.300 -12.195 -17.398  0.00  0.00    +0.173 A 
ATOM      5  C   LIG    1       -3.724 -13.094 -18.297  0.00  0.00    +0.090 A 
ATOM      6  C   LIG    1       -3.476 -12.707 -19.598  0.00  0.00    +0.095 A 
ENDROOT
BRANCH   3   7
ATOM      7  N   LIG    1       -5.231  -9.958 -16.848  0.00  0.00    +0.034 N 
ATOM      8  O   LIG    1       -4.946  -8.784 -16.895  0.00  0.00    -0.128 OA
ATOM      9  O   LIG    1       -6.013 -10.359 -16.017  0.00  0.00    -0.154 OA
ENDBRANCH   3   7
BRANCH   1  11
ATOM     10  C   LIG    1       -2.510 -10.094 -21.652  0.00  0.00    -0.111 C 
ATOM     11  C   LIG    1       -3.527 -10.985 -21.388  0.00  0.00    +0.245 C 
BRANCH  10  14
ATOM     12  C   LIG    1       -1.361  -9.595 -25.233  0.00  0.00    +0.303 C 
ATOM     13  N   LIG    1       -1.523 -10.145 -23.885  0.00  0.00    -0.612 N 
ATOM     14  C   LIG    1       -2.347  -9.542 -23.006  0.00  0.00    +0.571 C 
ATOM     15  O   LIG    1       -2.956  -8.541 -23.332  0.00  0.00    -0.519 OA
ATOM     16  C   LIG    1       -0.789 -11.351 -23.492  0.00  0.00    +0.284 C 
ENDBRANCH  10  14
BRANCH  10  17
ATOM     17  C   LIG    1       -1.609  -9.705 -20.608  0.00  0.00    +0.249 C 
ATOM     18  N   LIG    1       -0.897  -9.395 -19.780  0.00  0.00    -0.402 NA
ENDBRANCH  10  17
ENDBRANCH   1  11
BRANCH   4  19
ATOM     19  O   LIG    1       -4.549 -12.581 -16.121  0.00  0.00    -0.458 OA
ATOM     20  H   LIG    1       -4.572 -13.540 -15.996  0.00  0.00    +0.408 HD
ENDBRANCH   4  19
BRANCH   5  21
ATOM     21  O   LIG    1       -3.412 -14.354 -17.891  0.00  0.00    -0.469 OA
ATOM     22  H   LIG    1       -4.166 -14.958 -17.868  0.00  0.00    +0.400 HD
ENDBRANCH   5  21
TORSDOF 6
ENDMDL
MODEL 6
REMARK VINA RESULT:      -5.7     13.440     15.415
REMARK  Name = CHEMBL168389
REMARK                            x       y       z     vdW  Elec       q    Type
REMARK                         _______ _______ _______ _____ _____    ______ ____
ROOT
ATOM      1  C   LIG    1        7.510  -5.852 -18.345  0.00  0.00    -0.090 A 
ATOM      2  C   LIG    1        7.017  -5.424 -17.104  0.00  0.00    +0.159 A 
ATOM      3  C   LIG    1        6.889  -4.079 -16.842  0.00  0.00    -0.068 A 
ATOM      4  C   LIG    1        7.246  -3.142 -17.805  0.00  0.00    +0.173 A 
ATOM      5  C   LIG    1        7.737  -3.560 -19.043  0.00  0.00    +0.090 A 
ATOM      6  C   LIG    1        7.876  -4.905 -19.313  0.00  0.00    +0.095 A 
ENDROOT
BRANCH   3   7
ATOM      7  N   LIG    1        6.368  -3.628 -15.532  0.00  0.00    +0.034 N 
ATOM      8  O   LIG    1        6.780  -4.131 -14.513  0.00  0.00    -0.128 OA
ATOM      9  O   LIG    1        5.530  -2.758 -15.482  0.00  0.00    -0.154 OA
ENDBRANCH   3   7
BRANCH   1  11
ATOM     10  C   LIG    1        6.574  -7.996 -19.111  0.00  0.00    -0.111 C 
ATOM     11  C   LIG    1        7.649  -7.283 -18.627  0.00  0.00    +0.245 C 
BRANCH  10  14
ATOM     12  C   LIG    1        7.082 -11.474 -20.538  0.00  0.00    +0.303 C 
ATOM     13  N   LIG    1        6.999 -10.018 -20.415  0.00  0.00    -0.612 N 
ATOM     14  C   LIG    1        6.659  -9.460 -19.236  0.00  0.00    +0.571 C 
ATOM     15  O   LIG    1        6.421 -10.167 -18.275  0.00  0.00    -0.519 OA
ATOM     16  C   LIG    1        7.285  -9.166 -21.571  0.00  0.00    +0.284 C 
ENDBRANCH  10  14
BRANCH  10  17
ATOM     17  C   LIG    1        5.375  -7.314 -19.494  0.00  0.00    +0.249 C 
ATOM     18  N   LIG    1        4.424  -6.774 -19.798  0.00  0.00    -0.402 NA
ENDBRANCH  10  17
ENDBRANCH   1  11
BRANCH   4  19
ATOM     19  O   LIG    1        7.116  -1.817 -17.540  0.00  0.00    -0.458 OA
ATOM     20  H   LIG    1        7.865  -1.436 -17.061  0.00  0.00    +0.408 HD
ENDBRANCH   4  19
BRANCH   5  21
ATOM     21  O   LIG    1        8.084  -2.639 -19.982  0.00  0.00    -0.469 OA
ATOM     22  H   LIG    1        7.407  -2.489 -20.655  0.00  0.00    +0.400 HD
ENDBRANCH   5  21
TORSDOF 6
ENDMDL
MODEL 7
REMARK VINA RESULT:      -5.6     10.775     12.937
REMARK  Name = CHEMBL168389
REMARK                            x       y       z     vdW  Elec       q    Type
REMARK                         _______ _______ _______ _____ _____    ______ ____
ROOT
ATOM      1  C   LIG    1       -3.423 -13.841 -18.408  0.00  0.00    -0.090 A 
ATOM      2  C   LIG    1       -3.185 -12.765 -19.277  0.00  0.00    +0.159 A 
ATOM      3  C   LIG    1       -3.599 -11.499 -18.931  0.00  0.00    -0.068 A 
ATOM      4  C   LIG    1       -4.252 -11.282 -17.724  0.00  0.00    +0.173 A 
ATOM      5  C   LIG    1       -4.492 -12.347 -16.853  0.00  0.00    +0.090 A 
ATOM      6  C   LIG    1       -4.087 -13.621 -17.193  0.00  0.00    +0.095 A 
ENDROOT
BRANCH   3   7
ATOM      7  N   LIG    1       -3.347 -10.365 -19.848  0.00  0.00    +0.034 N 
ATOM      8  O   LIG    1       -2.681  -9.426 -19.479  0.00  0.00    -0.128 OA
ATOM      9  O   LIG    1       -3.808 -10.377 -20.966  0.00  0.00    -0.154 OA
ENDBRANCH   3   7
BRANCH   1  11
ATOM     10  C   LIG    1       -3.289 -15.700 -20.016  0.00  0.00    -0.111 C 
ATOM     11  C   LIG    1       -2.985 -15.190 -18.773  0.00  0.00    +0.245 C 
BRANCH  10  14
ATOM     12  C   LIG    1       -1.471 -18.874 -21.024  0.00  0.00    +0.303 C 
ATOM     13  N   LIG    1       -1.760 -17.472 -20.716  0.00  0.00    -0.612 N 
ATOM     14  C   LIG    1       -2.998 -17.109 -20.326  0.00  0.00    +0.571 C 
ATOM     15  O   LIG    1       -3.875 -17.946 -20.229  0.00  0.00    -0.519 OA
ATOM     16  C   LIG    1       -0.704 -16.463 -20.832  0.00  0.00    +0.284 C 
ENDBRANCH  10  14
BRANCH  10  17
ATOM     17  C   LIG    1       -3.887 -14.859 -21.009  0.00  0.00    +0.249 C 
ATOM     18  N   LIG    1       -4.360 -14.192 -21.797  0.00  0.00    -0.402 NA
ENDBRANCH  10  17
ENDBRANCH   1  11
BRANCH   4  19
ATOM     19  O   LIG    1       -4.657 -10.030 -17.389  0.00  0.00    -0.458 OA
ATOM     20  H   LIG    1       -4.376  -9.748 -16.508  0.00  0.00    +0.408 HD
ENDBRANCH   4  19
BRANCH   5  21
ATOM     21  O   LIG    1       -5.130 -12.128 -15.673  0.00  0.00    -0.469 OA
ATOM     22  H   LIG    1       -5.415 -11.214 -15.544  0.00  0.00    +0.400 HD
ENDBRANCH   5  21
TORSDOF 6
ENDMDL
MODEL 8
REMARK VINA RESULT:      -5.6     10.026     12.306
REMARK  Name = CHEMBL168389
REMARK                            x       y       z     vdW  Elec       q    Type
REMARK                         _______ _______ _______ _____ _____    ______ ____
ROOT
ATOM      1  C   LIG    1       -3.199 -13.256 -19.866  0.00  0.00    -0.090 A 
ATOM      2  C   LIG    1       -3.183 -11.853 -19.891  0.00  0.00    +0.159 A 
ATOM      3  C   LIG    1       -3.521 -11.142 -18.762  0.00  0.00    -0.068 A 
ATOM      4  C   LIG    1       -3.877 -11.810 -17.596  0.00  0.00    +0.173 A 
ATOM      5  C   LIG    1       -3.894 -13.205 -17.562  0.00  0.00    +0.090 A 
ATOM      6  C   LIG    1       -3.564 -13.927 -18.691  0.00  0.00    +0.095 A 
ENDROOT
BRANCH   3   7
ATOM      7  N   LIG    1       -3.504  -9.663 -18.789  0.00  0.00    +0.034 N 
ATOM      8  O   LIG    1       -4.363  -9.038 -18.212  0.00  0.00    -0.128 OA
ATOM      9  O   LIG    1       -2.631  -9.079 -19.389  0.00  0.00    -0.154 OA
ENDBRANCH   3   7
BRANCH   1  11
ATOM     10  C   LIG    1       -3.768 -14.193 -22.070  0.00  0.00    -0.111 C 
ATOM     11  C   LIG    1       -2.842 -14.015 -21.067  0.00  0.00    +0.245 C 
BRANCH  10  14
ATOM     12  C   LIG    1       -3.489 -17.293 -24.239  0.00  0.00    +0.303 C 
ATOM     13  N   LIG    1       -3.786 -16.399 -23.118  0.00  0.00    -0.612 N 
ATOM     14  C   LIG    1       -3.470 -15.092 -23.197  0.00  0.00    +0.571 C 
ATOM     15  O   LIG    1       -2.939 -14.654 -24.199  0.00  0.00    -0.519 OA
ATOM     16  C   LIG    1       -4.427 -16.926 -21.910  0.00  0.00    +0.284 C 
ENDBRANCH  10  14
BRANCH  10  17
ATOM     17  C   LIG    1       -5.022 -13.502 -22.019  0.00  0.00    +0.249 C 
ATOM     18  N   LIG    1       -6.016 -12.954 -21.979  0.00  0.00    -0.402 NA
ENDBRANCH  10  17
ENDBRANCH   1  11
BRANCH   4  19
ATOM     19  O   LIG    1       -4.208 -11.102 -16.486  0.00  0.00    -0.458 OA
ATOM     20  H   LIG    1       -5.076 -11.324 -16.121  0.00  0.00    +0.408 HD
ENDBRANCH   4  19
BRANCH   5  21
ATOM     21  O   LIG    1       -4.242 -13.853 -16.419  0.00  0.00    -0.469 OA
ATOM     22  H   LIG    1       -5.149 -14.188 -16.417  0.00  0.00    +0.400 HD
ENDBRANCH   5  21
TORSDOF 6
ENDMDL
MODEL 9
REMARK VINA RESULT:      -5.5      8.460      9.167
REMARK  Name = CHEMBL168389
REMARK                            x       y       z     vdW  Elec       q    Type
REMARK                         _______ _______ _______ _____ _____    ______ ____
ROOT
ATOM      1  C   LIG    1       -1.049  -9.557 -20.338  0.00  0.00    -0.090 A 
ATOM      2  C   LIG    1       -2.044  -9.365 -19.368  0.00  0.00    +0.159 A 
ATOM      3  C   LIG    1       -3.151 -10.183 -19.350  0.00  0.00    -0.068 A 
ATOM      4  C   LIG    1       -3.286 -11.199 -20.288  0.00  0.00    +0.173 A 
ATOM      5  C   LIG    1       -2.299 -11.398 -21.256  0.00  0.00    +0.090 A 
ATOM      6  C   LIG    1       -1.189 -10.579 -21.287  0.00  0.00    +0.095 A 
ENDROOT
BRANCH   3   7
ATOM      7  N   LIG    1       -4.201  -9.980 -18.327  0.00  0.00    +0.034 N 
ATOM      8  O   LIG    1       -4.528  -8.860 -18.011  0.00  0.00    -0.128 OA
ATOM      9  O   LIG    1       -4.731 -10.934 -17.806  0.00  0.00    -0.154 OA
ENDBRANCH   3   7
BRANCH   1  11
ATOM     10  C   LIG    1        0.293  -7.776 -21.381  0.00  0.00    -0.111 C 
ATOM     11  C   LIG    1        0.131  -8.688 -20.361  0.00  0.00    +0.245 C 
BRANCH  10  14
ATOM     12  C   LIG    1        3.731  -6.645 -22.519  0.00  0.00    +0.303 C 
ATOM     13  N   LIG    1        2.479  -7.396 -22.402  0.00  0.00    -0.612 N 
ATOM     14  C   LIG    1        1.551  -7.021 -21.500  0.00  0.00    +0.571 C 
ATOM     15  O   LIG    1        1.753  -6.059 -20.783  0.00  0.00    -0.519 OA
ATOM     16  C   LIG    1        2.236  -8.555 -23.264  0.00  0.00    +0.284 C 
ENDBRANCH  10  14
BRANCH  10  17
ATOM     17  C   LIG    1       -0.762  -7.560 -22.324  0.00  0.00    +0.249 C 
ATOM     18  N   LIG    1       -1.599  -7.388 -23.072  0.00  0.00    -0.402 NA
ENDBRANCH  10  17
ENDBRANCH   1  11
BRANCH   4  19
ATOM     19  O   LIG    1       -4.380 -12.002 -20.263  0.00  0.00    -0.458 OA
ATOM     20  H   LIG    1       -4.552 -12.407 -19.401  0.00  0.00    +0.408 HD
ENDBRANCH   4  19
BRANCH   5  21
ATOM     21  O   LIG    1       -2.436 -12.394 -22.171  0.00  0.00    -0.469 OA
ATOM     22  H   LIG    1       -2.855 -13.192 -21.823  0.00  0.00    +0.400 HD
ENDBRANCH   5  21
TORSDOF 6
ENDMDL
