MODEL 1
REMARK VINA RESULT:      -6.1      0.000      0.000
REMARK  Name = CHEMBL1089505
REMARK                            x       y       z     vdW  Elec       q    Type
REMARK                         _______ _______ _______ _____ _____    ______ ____
ROOT
ATOM      1  C   LIG    1       -2.892 -11.362 -21.314  0.00  0.00    -0.173 A 
ATOM      2  C   LIG    1       -2.896 -12.484 -20.539  0.00  0.00    +0.026 A 
ATOM      3 CL   LIG    1       -2.207 -13.959 -21.141  0.00  0.00    +0.004 Cl
ATOM      4  C   LIG    1       -3.460 -12.443 -19.251  0.00  0.00    -0.083 A 
ATOM      5  C   LIG    1       -3.557 -13.497 -18.304  0.00  0.00    +0.135 A 
ATOM      6  C   LIG    1       -4.137 -13.291 -17.091  0.00  0.00    +0.096 A 
ATOM      7  C   LIG    1       -4.657 -12.043 -16.732  0.00  0.00    +0.191 A 
ATOM      8  C   LIG    1       -4.579 -10.992 -17.630  0.00  0.00    -0.013 A 
ATOM      9  C   LIG    1       -3.993 -11.192 -18.861  0.00  0.00    -0.091 A 
ATOM     10  S   LIG    1       -3.685 -10.153 -20.267  0.00  0.00    +0.214 S 
ENDROOT
BRANCH   8  11
ATOM     11  N   LIG    1       -5.122  -9.663 -17.270  0.00  0.00    +0.023 N 
ATOM     12  O   LIG    1       -6.168  -9.581 -16.670  0.00  0.00    -0.110 OA
ATOM     13  O   LIG    1       -4.520  -8.661 -17.576  0.00  0.00    -0.125 OA
ENDBRANCH   8  11
BRANCH   1  14
ATOM     14  C   LIG    1       -2.362 -11.191 -22.668  0.00  0.00    +0.548 C 
ATOM     15  O   LIG    1       -2.979 -11.624 -23.622  0.00  0.00    -0.460 OA
BRANCH  14  16
ATOM     16  O   LIG    1       -1.189 -10.554 -22.858  0.00  0.00    -0.342 OA
BRANCH  16  17
ATOM     17  C   LIG    1       -1.193  -9.437 -23.750  0.00  0.00    +0.216 C 
BRANCH  17  19
ATOM     18  C   LIG    1       -0.892  -7.760 -21.922  0.00  0.00    +0.036 C 
ATOM     19  C   LIG    1       -1.815  -8.227 -23.049  0.00  0.00    +0.029 C 
ENDBRANCH  17  19
ENDBRANCH  16  17
ENDBRANCH  14  16
ENDBRANCH   1  14
BRANCH   6  20
ATOM     20  O   LIG    1       -4.215 -14.324 -16.208  0.00  0.00    -0.469 OA
ATOM     21  H   LIG    1       -4.914 -14.225 -15.547  0.00  0.00    +0.401 HD
ENDBRANCH   6  20
BRANCH   7  22
ATOM     22  O   LIG    1       -5.232 -11.863 -15.515  0.00  0.00    -0.467 OA
ATOM     23  H   LIG    1       -6.187 -11.717 -15.549  0.00  0.00    +0.412 HD
ENDBRANCH   7  22
TORSDOF 7
ENDMDL
MODEL 2
REMARK VINA RESULT:      -5.8      3.494      5.124
REMARK  Name = CHEMBL1089505
REMARK                            x       y       z     vdW  Elec       q    Type
REMARK                         _______ _______ _______ _____ _____    ______ ____
ROOT
ATOM      1  C   LIG    1       -2.503 -15.032 -20.877  0.00  0.00    -0.173 A 
ATOM      2  C   LIG    1       -3.011 -15.112 -19.614  0.00  0.00    +0.026 A 
ATOM      3 CL   LIG    1       -3.173 -16.656 -18.838  0.00  0.00    +0.004 Cl
ATOM      4  C   LIG    1       -3.403 -13.940 -18.943  0.00  0.00    -0.083 A 
ATOM      5  C   LIG    1       -3.948 -13.821 -17.636  0.00  0.00    +0.135 A 
ATOM      6  C   LIG    1       -4.279 -12.603 -17.129  0.00  0.00    +0.096 A 
ATOM      7  C   LIG    1       -4.095 -11.429 -17.869  0.00  0.00    +0.191 A 
ATOM      8  C   LIG    1       -3.565 -11.508 -19.145  0.00  0.00    -0.013 A 
ATOM      9  C   LIG    1       -3.228 -12.738 -19.667  0.00  0.00    -0.091 A 
ATOM     10  S   LIG    1       -2.534 -13.279 -21.209  0.00  0.00    +0.214 S 
ENDROOT
BRANCH   8  11
ATOM     11  N   LIG    1       -3.363 -10.278 -19.944  0.00  0.00    +0.023 N 
ATOM     12  O   LIG    1       -2.598  -9.426 -19.557  0.00  0.00    -0.110 OA
ATOM     13  O   LIG    1       -3.962 -10.126 -20.983  0.00  0.00    -0.125 OA
ENDBRANCH   8  11
BRANCH   1  14
ATOM     14  C   LIG    1       -2.040 -16.118 -21.744  0.00  0.00    +0.548 C 
ATOM     15  O   LIG    1       -0.874 -16.462 -21.719  0.00  0.00    -0.460 OA
BRANCH  14  16
ATOM     16  O   LIG    1       -2.907 -16.735 -22.573  0.00  0.00    -0.342 OA
BRANCH  16  17
ATOM     17  C   LIG    1       -3.377 -18.025 -22.177  0.00  0.00    +0.216 C 
BRANCH  17  19
ATOM     18  C   LIG    1       -5.269 -19.235 -21.080  0.00  0.00    +0.036 C 
ATOM     19  C   LIG    1       -4.840 -17.923 -21.742  0.00  0.00    +0.029 C 
ENDBRANCH  17  19
ENDBRANCH  16  17
ENDBRANCH  14  16
ENDBRANCH   1  14
BRANCH   6  20
ATOM     20  O   LIG    1       -4.800 -12.525 -15.875  0.00  0.00    -0.469 OA
ATOM     21  H   LIG    1       -4.157 -12.682 -15.170  0.00  0.00    +0.401 HD
ENDBRANCH   6  20
BRANCH   7  22
ATOM     22  O   LIG    1       -4.434 -10.225 -17.339  0.00  0.00    -0.467 OA
ATOM     23  H   LIG    1       -4.240  -9.473 -17.916  0.00  0.00    +0.412 HD
ENDBRANCH   7  22
TORSDOF 7
ENDMDL
MODEL 3
REMARK VINA RESULT:      -5.7      1.307      1.965
REMARK  Name = CHEMBL1089505
REMARK                            x       y       z     vdW  Elec       q    Type
REMARK                         _______ _______ _______ _____ _____    ______ ____
ROOT
ATOM      1  C   LIG    1       -2.913 -11.601 -21.455  0.00  0.00    -0.173 A 
ATOM      2  C   LIG    1       -2.922 -12.691 -20.636  0.00  0.00    +0.026 A 
ATOM      3 CL   LIG    1       -2.271 -14.202 -21.190  0.00  0.00    +0.004 Cl
ATOM      4  C   LIG    1       -3.461 -12.589 -19.340  0.00  0.00    -0.083 A 
ATOM      5  C   LIG    1       -3.559 -13.602 -18.350  0.00  0.00    +0.135 A 
ATOM      6  C   LIG    1       -4.113 -13.338 -17.136  0.00  0.00    +0.096 A 
ATOM      7  C   LIG    1       -4.603 -12.066 -16.818  0.00  0.00    +0.191 A 
ATOM      8  C   LIG    1       -4.524 -11.054 -17.759  0.00  0.00    -0.013 A 
ATOM      9  C   LIG    1       -3.965 -11.314 -18.991  0.00  0.00    -0.091 A 
ATOM     10  S   LIG    1       -3.665 -10.337 -20.444  0.00  0.00    +0.214 S 
ENDROOT
BRANCH   8  11
ATOM     11  N   LIG    1       -5.037  -9.702 -17.443  0.00  0.00    +0.023 N 
ATOM     12  O   LIG    1       -6.065  -9.576 -16.820  0.00  0.00    -0.110 OA
ATOM     13  O   LIG    1       -4.428  -8.723 -17.808  0.00  0.00    -0.125 OA
ENDBRANCH   8  11
BRANCH   1  14
ATOM     14  C   LIG    1       -2.406 -11.494 -22.824  0.00  0.00    +0.548 C 
ATOM     15  O   LIG    1       -1.287 -11.064 -23.027  0.00  0.00    -0.460 OA
BRANCH  14  16
ATOM     16  O   LIG    1       -3.182 -11.870 -23.862  0.00  0.00    -0.342 OA
BRANCH  16  17
ATOM     17  C   LIG    1       -3.952 -10.849 -24.500  0.00  0.00    +0.216 C 
BRANCH  17  19
ATOM     18  C   LIG    1       -6.161 -10.164 -23.552  0.00  0.00    +0.036 C 
ATOM     19  C   LIG    1       -5.439 -11.202 -24.414  0.00  0.00    +0.029 C 
ENDBRANCH  17  19
ENDBRANCH  16  17
ENDBRANCH  14  16
ENDBRANCH   1  14
BRANCH   6  20
ATOM     20  O   LIG    1       -4.192 -14.332 -16.211  0.00  0.00    -0.469 OA
ATOM     21  H   LIG    1       -5.082 -14.693 -16.095  0.00  0.00    +0.401 HD
ENDBRANCH   6  20
BRANCH   7  22
ATOM     22  O   LIG    1       -5.152 -11.828 -15.599  0.00  0.00    -0.467 OA
ATOM     23  H   LIG    1       -4.617 -12.144 -14.858  0.00  0.00    +0.412 HD
ENDBRANCH   7  22
TORSDOF 7
ENDMDL
MODEL 4
REMARK VINA RESULT:      -5.4      3.351      7.240
REMARK  Name = CHEMBL1089505
REMARK                            x       y       z     vdW  Elec       q    Type
REMARK                         _______ _______ _______ _____ _____    ______ ____
ROOT
ATOM      1  C   LIG    1       -2.341 -10.458 -20.887  0.00  0.00    -0.173 A 
ATOM      2  C   LIG    1       -2.745  -9.739 -21.974  0.00  0.00    +0.026 A 
ATOM      3 CL   LIG    1       -4.225 -10.145 -22.784  0.00  0.00    +0.004 Cl
ATOM      4  C   LIG    1       -1.958  -8.669 -22.436  0.00  0.00    -0.083 A 
ATOM      5  C   LIG    1       -2.209  -7.811 -23.540  0.00  0.00    +0.135 A 
ATOM      6  C   LIG    1       -1.339  -6.815 -23.859  0.00  0.00    +0.096 A 
ATOM      7  C   LIG    1       -0.174  -6.597 -23.116  0.00  0.00    +0.191 A 
ATOM      8  C   LIG    1        0.103  -7.413 -22.032  0.00  0.00    -0.013 A 
ATOM      9  C   LIG    1       -0.773  -8.426 -21.704  0.00  0.00    -0.091 A 
ATOM     10  S   LIG    1       -0.811  -9.662 -20.430  0.00  0.00    +0.214 S 
ENDROOT
BRANCH   8  11
ATOM     11  N   LIG    1        1.330  -7.200 -21.233  0.00  0.00    +0.023 N 
ATOM     12  O   LIG    1        2.143  -8.088 -21.126  0.00  0.00    -0.110 OA
ATOM     13  O   LIG    1        1.519  -6.138 -20.687  0.00  0.00    -0.125 OA
ENDBRANCH   8  11
BRANCH   1  14
ATOM     14  C   LIG    1       -3.004 -11.597 -20.250  0.00  0.00    +0.548 C 
ATOM     15  O   LIG    1       -2.735 -12.731 -20.598  0.00  0.00    -0.460 OA
BRANCH  14  16
ATOM     16  O   LIG    1       -3.916 -11.390 -19.278  0.00  0.00    -0.342 OA
BRANCH  16  17
ATOM     17  C   LIG    1       -3.477 -11.563 -17.929  0.00  0.00    +0.216 C 
BRANCH  17  19
ATOM     18  C   LIG    1       -3.865 -13.947 -17.287  0.00  0.00    +0.036 C 
ATOM     19  C   LIG    1       -4.422 -12.525 -17.205  0.00  0.00    +0.029 C 
ENDBRANCH  17  19
ENDBRANCH  16  17
ENDBRANCH  14  16
ENDBRANCH   1  14
BRANCH   6  20
ATOM     20  O   LIG    1       -1.610  -6.012 -24.924  0.00  0.00    -0.469 OA
ATOM     21  H   LIG    1       -1.827  -6.493 -25.734  0.00  0.00    +0.401 HD
ENDBRANCH   6  20
BRANCH   7  22
ATOM     22  O   LIG    1        0.678  -5.595 -23.455  0.00  0.00    -0.467 OA
ATOM     23  H   LIG    1        1.613  -5.838 -23.400  0.00  0.00    +0.412 HD
ENDBRANCH   7  22
TORSDOF 7
ENDMDL
MODEL 5
REMARK VINA RESULT:      -4.9      2.864      3.830
REMARK  Name = CHEMBL1089505
REMARK                            x       y       z     vdW  Elec       q    Type
REMARK                         _______ _______ _______ _____ _____    ______ ____
ROOT
ATOM      1  C   LIG    1       -1.213 -10.356 -21.700  0.00  0.00    -0.173 A 
ATOM      2  C   LIG    1       -1.721  -9.875 -20.530  0.00  0.00    +0.026 A 
ATOM      3 CL   LIG    1       -1.404  -8.237 -20.052  0.00  0.00    +0.004 Cl
ATOM      4  C   LIG    1       -2.502 -10.711 -19.710  0.00  0.00    -0.083 A 
ATOM      5  C   LIG    1       -3.112 -10.394 -18.467  0.00  0.00    +0.135 A 
ATOM      6  C   LIG    1       -3.841 -11.325 -17.794  0.00  0.00    +0.096 A 
ATOM      7  C   LIG    1       -4.017 -12.618 -18.296  0.00  0.00    +0.191 A 
ATOM      8  C   LIG    1       -3.437 -12.962 -19.505  0.00  0.00    -0.013 A 
ATOM      9  C   LIG    1       -2.696 -12.026 -20.193  0.00  0.00    -0.091 A 
ATOM     10  S   LIG    1       -1.813 -12.037 -21.733  0.00  0.00    +0.214 S 
ENDROOT
BRANCH   8  11
ATOM     11  N   LIG    1       -3.611 -14.325 -20.054  0.00  0.00    +0.023 N 
ATOM     12  O   LIG    1       -3.218 -15.283 -19.429  0.00  0.00    -0.110 OA
ATOM     13  O   LIG    1       -4.145 -14.482 -21.127  0.00  0.00    -0.125 OA
ENDBRANCH   8  11
BRANCH   1  14
ATOM     14  C   LIG    1       -0.384  -9.663 -22.688  0.00  0.00    +0.548 C 
ATOM     15  O   LIG    1       -0.848  -9.371 -23.774  0.00  0.00    -0.460 OA
BRANCH  14  16
ATOM     16  O   LIG    1        0.894  -9.349 -22.395  0.00  0.00    -0.342 OA
BRANCH  16  17
ATOM     17  C   LIG    1        1.589 -10.223 -21.503  0.00  0.00    +0.216 C 
BRANCH  17  19
ATOM     18  C   LIG    1        2.130  -7.912 -20.719  0.00  0.00    +0.036 C 
ATOM     19  C   LIG    1        2.466  -9.397 -20.559  0.00  0.00    +0.029 C 
ENDBRANCH  17  19
ENDBRANCH  16  17
ENDBRANCH  14  16
ENDBRANCH   1  14
BRANCH   6  20
ATOM     20  O   LIG    1       -4.412 -10.988 -16.605  0.00  0.00    -0.469 OA
ATOM     21  H   LIG    1       -5.089 -11.609 -16.303  0.00  0.00    +0.401 HD
ENDBRANCH   6  20
BRANCH   7  22
ATOM     22  O   LIG    1       -4.750 -13.529 -17.603  0.00  0.00    -0.467 OA
ATOM     23  H   LIG    1       -4.661 -14.435 -17.929  0.00  0.00    +0.412 HD
ENDBRANCH   7  22
TORSDOF 7
ENDMDL
MODEL 6
REMARK VINA RESULT:      -4.8      2.219      3.274
REMARK  Name = CHEMBL1089505
REMARK                            x       y       z     vdW  Elec       q    Type
REMARK                         _______ _______ _______ _____ _____    ______ ____
ROOT
ATOM      1  C   LIG    1       -2.315 -12.099 -22.098  0.00  0.00    -0.173 A 
ATOM      2  C   LIG    1       -2.815 -11.054 -21.378  0.00  0.00    +0.026 A 
ATOM      3 CL   LIG    1       -2.857  -9.463 -22.070  0.00  0.00    +0.004 Cl
ATOM      4  C   LIG    1       -3.294 -11.269 -20.073  0.00  0.00    -0.083 A 
ATOM      5  C   LIG    1       -3.847 -10.317 -19.176  0.00  0.00    +0.135 A 
ATOM      6  C   LIG    1       -4.267 -10.690 -17.937  0.00  0.00    +0.096 A 
ATOM      7  C   LIG    1       -4.173 -12.017 -17.503  0.00  0.00    +0.191 A 
ATOM      8  C   LIG    1       -3.640 -12.972 -18.352  0.00  0.00    -0.013 A 
ATOM      9  C   LIG    1       -3.212 -12.602 -19.608  0.00  0.00    -0.091 A 
ATOM     10  S   LIG    1       -2.496 -13.476 -20.978  0.00  0.00    +0.214 S 
ENDROOT
BRANCH   8  11
ATOM     11  N   LIG    1       -3.532 -14.381 -17.912  0.00  0.00    +0.023 N 
ATOM     12  O   LIG    1       -4.264 -14.802 -17.047  0.00  0.00    -0.110 OA
ATOM     13  O   LIG    1       -2.712 -15.111 -18.418  0.00  0.00    -0.125 OA
ENDBRANCH   8  11
BRANCH   1  14
ATOM     14  C   LIG    1       -1.771 -12.092 -23.457  0.00  0.00    +0.548 C 
ATOM     15  O   LIG    1       -2.396 -12.605 -24.366  0.00  0.00    -0.460 OA
BRANCH  14  16
ATOM     16  O   LIG    1       -0.575 -11.519 -23.702  0.00  0.00    -0.342 OA
BRANCH  16  17
ATOM     17  C   LIG    1        0.349 -11.455 -22.613  0.00  0.00    +0.216 C 
BRANCH  17  19
ATOM     18  C   LIG    1        0.804  -9.720 -20.873  0.00  0.00    +0.036 C 
ATOM     19  C   LIG    1        0.758  -9.999 -22.377  0.00  0.00    +0.029 C 
ENDBRANCH  17  19
ENDBRANCH  16  17
ENDBRANCH  14  16
ENDBRANCH   1  14
BRANCH   6  20
ATOM     20  O   LIG    1       -4.790  -9.752 -17.102  0.00  0.00    -0.469 OA
ATOM     21  H   LIG    1       -5.393 -10.109 -16.436  0.00  0.00    +0.401 HD
ENDBRANCH   6  20
BRANCH   7  22
ATOM     22  O   LIG    1       -4.600 -12.364 -16.261  0.00  0.00    -0.467 OA
ATOM     23  H   LIG    1       -5.065 -13.211 -16.228  0.00  0.00    +0.412 HD
ENDBRANCH   7  22
TORSDOF 7
ENDMDL
MODEL 7
REMARK VINA RESULT:      -4.8      3.761      7.375
REMARK  Name = CHEMBL1089505
REMARK                            x       y       z     vdW  Elec       q    Type
REMARK                         _______ _______ _______ _____ _____    ______ ____
ROOT
ATOM      1  C   LIG    1       -2.672  -9.653 -22.075  0.00  0.00    -0.173 A 
ATOM      2  C   LIG    1       -1.665  -9.196 -21.278  0.00  0.00    +0.026 A 
ATOM      3 CL   LIG    1       -1.358  -9.949 -19.745  0.00  0.00    +0.004 Cl
ATOM      4  C   LIG    1       -0.876  -8.110 -21.701  0.00  0.00    -0.083 A 
ATOM      5  C   LIG    1        0.208  -7.497 -21.018  0.00  0.00    +0.135 A 
ATOM      6  C   LIG    1        0.873  -6.446 -21.569  0.00  0.00    +0.096 A 
ATOM      7  C   LIG    1        0.518  -5.934 -22.822  0.00  0.00    +0.191 A 
ATOM      8  C   LIG    1       -0.533  -6.507 -23.517  0.00  0.00    -0.013 A 
ATOM      9  C   LIG    1       -1.213  -7.571 -22.965  0.00  0.00    -0.091 A 
ATOM     10  S   LIG    1       -2.573  -8.581 -23.497  0.00  0.00    +0.214 S 
ENDROOT
BRANCH   8  11
ATOM     11  N   LIG    1       -0.925  -5.980 -24.843  0.00  0.00    +0.023 N 
ATOM     12  O   LIG    1       -0.652  -6.600 -25.844  0.00  0.00    -0.110 OA
ATOM     13  O   LIG    1       -1.517  -4.929 -24.926  0.00  0.00    -0.125 OA
ENDBRANCH   8  11
BRANCH   1  14
ATOM     14  C   LIG    1       -3.602 -10.757 -21.826  0.00  0.00    +0.548 C 
ATOM     15  O   LIG    1       -4.020 -11.422 -22.755  0.00  0.00    -0.460 OA
BRANCH  14  16
ATOM     16  O   LIG    1       -3.996 -11.036 -20.567  0.00  0.00    -0.342 OA
BRANCH  16  17
ATOM     17  C   LIG    1       -3.877 -12.393 -20.135  0.00  0.00    +0.216 C 
BRANCH  17  19
ATOM     18  C   LIG    1       -3.693 -11.609 -17.769  0.00  0.00    +0.036 C 
ATOM     19  C   LIG    1       -4.453 -12.532 -18.724  0.00  0.00    +0.029 C 
ENDBRANCH  17  19
ENDBRANCH  16  17
ENDBRANCH  14  16
ENDBRANCH   1  14
BRANCH   6  20
ATOM     20  O   LIG    1        1.906  -5.882 -20.887  0.00  0.00    -0.469 OA
ATOM     21  H   LIG    1        2.675  -5.677 -21.436  0.00  0.00    +0.401 HD
ENDBRANCH   6  20
BRANCH   7  22
ATOM     22  O   LIG    1        1.198  -4.883 -23.351  0.00  0.00    -0.467 OA
ATOM     23  H   LIG    1        1.267  -4.122 -22.759  0.00  0.00    +0.412 HD
ENDBRANCH   7  22
TORSDOF 7
ENDMDL
MODEL 8
REMARK VINA RESULT:      -4.7      6.080      7.668
REMARK  Name = CHEMBL1089505
REMARK                            x       y       z     vdW  Elec       q    Type
REMARK                         _______ _______ _______ _____ _____    ______ ____
ROOT
ATOM      1  C   LIG    1       -3.590 -15.607 -21.753  0.00  0.00    -0.173 A 
ATOM      2  C   LIG    1       -3.578 -16.663 -20.892  0.00  0.00    +0.026 A 
ATOM      3 CL   LIG    1       -2.523 -16.650 -19.514  0.00  0.00    +0.004 Cl
ATOM      4  C   LIG    1       -4.421 -17.765 -21.124  0.00  0.00    -0.083 A 
ATOM      5  C   LIG    1       -4.550 -18.948 -20.348  0.00  0.00    +0.135 A 
ATOM      6  C   LIG    1       -5.420 -19.928 -20.712  0.00  0.00    +0.096 A 
ATOM      7  C   LIG    1       -6.216 -19.809 -21.857  0.00  0.00    +0.191 A 
ATOM      8  C   LIG    1       -6.117 -18.670 -22.637  0.00  0.00    -0.013 A 
ATOM      9  C   LIG    1       -5.238 -17.673 -22.275  0.00  0.00    -0.091 A 
ATOM     10  S   LIG    1       -4.811 -16.092 -22.961  0.00  0.00    +0.214 S 
ENDROOT
BRANCH   8  11
ATOM     11  N   LIG    1       -6.950 -18.525 -23.852  0.00  0.00    +0.023 N 
ATOM     12  O   LIG    1       -6.459 -18.688 -24.944  0.00  0.00    -0.110 OA
ATOM     13  O   LIG    1       -8.121 -18.243 -23.752  0.00  0.00    -0.125 OA
ENDBRANCH   8  11
BRANCH   1  14
ATOM     14  C   LIG    1       -2.800 -14.375 -21.697  0.00  0.00    +0.548 C 
ATOM     15  O   LIG    1       -2.189 -13.998 -22.679  0.00  0.00    -0.460 OA
BRANCH  14  16
ATOM     16  O   LIG    1       -2.747 -13.659 -20.555  0.00  0.00    -0.342 OA
BRANCH  16  17
ATOM     17  C   LIG    1       -3.982 -13.140 -20.058  0.00  0.00    +0.216 C 
BRANCH  17  19
ATOM     18  C   LIG    1       -3.956 -13.847 -17.661  0.00  0.00    +0.036 C 
ATOM     19  C   LIG    1       -3.791 -12.663 -18.616  0.00  0.00    +0.029 C 
ENDBRANCH  17  19
ENDBRANCH  16  17
ENDBRANCH  14  16
ENDBRANCH   1  14
BRANCH   6  20
ATOM     20  O   LIG    1       -5.518 -21.048 -19.946  0.00  0.00    -0.469 OA
ATOM     21  H   LIG    1       -6.138 -20.969 -19.209  0.00  0.00    +0.401 HD
ENDBRANCH   6  20
BRANCH   7  22
ATOM     22  O   LIG    1       -7.077 -20.803 -22.200  0.00  0.00    -0.467 OA
ATOM     23  H   LIG    1       -7.605 -20.612 -22.987  0.00  0.00    +0.412 HD
ENDBRANCH   7  22
TORSDOF 7
ENDMDL
MODEL 9
REMARK VINA RESULT:      -4.6      2.736      3.797
REMARK  Name = CHEMBL1089505
REMARK                            x       y       z     vdW  Elec       q    Type
REMARK                         _______ _______ _______ _____ _____    ______ ____
ROOT
ATOM      1  C   LIG    1       -1.227 -10.089 -22.038  0.00  0.00    -0.173 A 
ATOM      2  C   LIG    1       -1.617  -9.702 -20.790  0.00  0.00    +0.026 A 
ATOM      3 CL   LIG    1       -1.158  -8.144 -20.180  0.00  0.00    +0.004 Cl
ATOM      4  C   LIG    1       -2.392 -10.569 -19.999  0.00  0.00    -0.083 A 
ATOM      5  C   LIG    1       -2.891 -10.347 -18.688  0.00  0.00    +0.135 A 
ATOM      6  C   LIG    1       -3.631 -11.297 -18.055  0.00  0.00    +0.096 A 
ATOM      7  C   LIG    1       -3.929 -12.519 -18.667  0.00  0.00    +0.191 A 
ATOM      8  C   LIG    1       -3.460 -12.770 -19.946  0.00  0.00    -0.013 A 
ATOM      9  C   LIG    1       -2.709 -11.813 -20.593  0.00  0.00    -0.091 A 
ATOM     10  S   LIG    1       -1.939 -11.718 -22.191  0.00  0.00    +0.214 S 
ENDROOT
BRANCH   8  11
ATOM     11  N   LIG    1       -3.764 -14.056 -20.611  0.00  0.00    +0.023 N 
ATOM     12  O   LIG    1       -3.281 -15.082 -20.192  0.00  0.00    -0.110 OA
ATOM     13  O   LIG    1       -4.495 -14.081 -21.574  0.00  0.00    -0.125 OA
ENDBRANCH   8  11
BRANCH   1  14
ATOM     14  C   LIG    1       -0.426  -9.348 -23.014  0.00  0.00    +0.548 C 
ATOM     15  O   LIG    1        0.779  -9.257 -22.870  0.00  0.00    -0.460 OA
BRANCH  14  16
ATOM     16  O   LIG    1       -1.023  -8.763 -24.073  0.00  0.00    -0.342 OA
BRANCH  16  17
ATOM     17  C   LIG    1       -1.911  -7.678 -23.799  0.00  0.00    +0.216 C 
BRANCH  17  19
ATOM     18  C   LIG    1       -0.335  -6.486 -25.329  0.00  0.00    +0.036 C 
ATOM     19  C   LIG    1       -1.196  -6.352 -24.071  0.00  0.00    +0.029 C 
ENDBRANCH  17  19
ENDBRANCH  16  17
ENDBRANCH  14  16
ENDBRANCH   1  14
BRANCH   6  20
ATOM     20  O   LIG    1       -4.092 -11.052 -16.798  0.00  0.00    -0.469 OA
ATOM     21  H   LIG    1       -4.235 -10.115 -16.607  0.00  0.00    +0.401 HD
ENDBRANCH   6  20
BRANCH   7  22
ATOM     22  O   LIG    1       -4.670 -13.451 -18.014  0.00  0.00    -0.467 OA
ATOM     23  H   LIG    1       -4.895 -13.208 -17.105  0.00  0.00    +0.412 HD
ENDBRANCH   7  22
TORSDOF 7
ENDMDL
