MODEL 1
REMARK VINA RESULT:      -9.6      0.000      0.000
REMARK  Name = CHEMBL265218
REMARK                            x       y       z     vdW  Elec       q    Type
REMARK                         _______ _______ _______ _____ _____    ______ ____
ROOT
ATOM      1  C   LIG    1      -10.016  -6.233 -22.306  0.00  0.00    +0.095 C 
ATOM      2  C   LIG    1       -9.269  -5.245 -21.766  0.00  0.00    -0.157 C 
ATOM      3  C   LIG    1       -9.008  -5.054 -20.342  0.00  0.00    +0.424 C 
ATOM      4  C   LIG    1       -8.160  -3.882 -20.144  0.00  0.00    -0.275 C 
ATOM      5  C   LIG    1       -7.853  -3.279 -21.493  0.00  0.00    +0.100 C 
ATOM      6  C   LIG    1       -7.724  -3.415 -18.954  0.00  0.00    +0.192 C 
ATOM      7  O   LIG    1       -9.434  -5.768 -19.451  0.00  0.00    -0.461 OA
ATOM      8  C   LIG    1       -8.559  -4.157 -22.534  0.00  0.00    +0.085 C 
ENDROOT
BRANCH   6   9
ATOM      9  C   LIG    1       -6.985  -2.147 -18.888  0.00  0.00    -0.212 A 
ATOM     10  C   LIG    1       -7.575  -1.019 -18.306  0.00  0.00    +0.079 A 
ATOM     11  C   LIG    1       -6.876   0.170 -18.246  0.00  0.00    -0.022 A 
ATOM     12  C   LIG    1       -5.584   0.245 -18.767  0.00  0.00    +0.302 A 
ATOM     13  O   LIG    1       -4.898   1.416 -18.708  0.00  0.00    -0.607 OA
ATOM     14  C   LIG    1       -4.997  -0.872 -19.345  0.00  0.00    -0.196 A 
ATOM     15  C   LIG    1       -5.686  -2.064 -19.402  0.00  0.00    +0.164 A 
BRANCH  14  16
ATOM     16  N   LIG    1       -3.626  -0.785 -19.894  0.00  0.00    +0.069 N 
ATOM     17  O   LIG    1       -3.423  -0.179 -20.920  0.00  0.00    -0.155 OA
ATOM     18  O   LIG    1       -2.708  -1.320 -19.316  0.00  0.00    -0.249 OA
ENDBRANCH  14  16
BRANCH  11  19
ATOM     19  O   LIG    1       -7.447   1.268 -17.683  0.00  0.00    -0.480 OA
ATOM     20  H   LIG    1       -7.310   2.083 -18.185  0.00  0.00    +0.369 HD
ENDBRANCH  11  19
ENDBRANCH   6   9
BRANCH   1  26
ATOM     21  C   LIG    1      -11.197  -5.932 -24.472  0.00  0.00    +0.128 A 
ATOM     22  C   LIG    1      -11.254  -6.081 -25.842  0.00  0.00    -0.066 A 
ATOM     23  C   LIG    1      -10.207  -6.688 -26.521  0.00  0.00    +0.149 A 
ATOM     24  C   LIG    1       -9.091  -7.149 -25.824  0.00  0.00    +0.088 A 
ATOM     25  C   LIG    1       -9.025  -7.004 -24.453  0.00  0.00    +0.080 A 
ATOM     26  C   LIG    1      -10.080  -6.392 -23.765  0.00  0.00    -0.045 A 
BRANCH  22  27
ATOM     27  N   LIG    1      -12.436  -5.594 -26.588  0.00  0.00    +0.037 N 
ATOM     28  O   LIG    1      -12.296  -4.793 -27.483  0.00  0.00    -0.136 OA
ATOM     29  O   LIG    1      -13.539  -5.997 -26.304  0.00  0.00    -0.164 OA
ENDBRANCH  22  27
BRANCH  23  30
ATOM     30  O   LIG    1      -10.269  -6.832 -27.870  0.00  0.00    -0.462 OA
ATOM     31  H   LIG    1       -9.469  -6.550 -28.334  0.00  0.00    +0.402 HD
ENDBRANCH  23  30
BRANCH  24  32
ATOM     32  O   LIG    1       -8.067  -7.743 -26.494  0.00  0.00    -0.472 OA
ATOM     33  H   LIG    1       -7.623  -7.163 -27.128  0.00  0.00    +0.396 HD
ENDBRANCH  24  32
ENDBRANCH   1  26
TORSDOF 7
ENDMDL
MODEL 2
REMARK VINA RESULT:      -7.7      9.319     11.230
REMARK  Name = CHEMBL265218
REMARK                            x       y       z     vdW  Elec       q    Type
REMARK                         _______ _______ _______ _____ _____    ______ ____
ROOT
ATOM      1  C   LIG    1       -3.219 -11.726 -20.540  0.00  0.00    +0.095 C 
ATOM      2  C   LIG    1       -2.256 -10.855 -20.914  0.00  0.00    -0.157 C 
ATOM      3  C   LIG    1       -1.722 -10.701 -22.264  0.00  0.00    +0.424 C 
ATOM      4  C   LIG    1       -0.696  -9.663 -22.278  0.00  0.00    -0.275 C 
ATOM      5  C   LIG    1       -0.550  -9.114 -20.880  0.00  0.00    +0.100 C 
ATOM      6  C   LIG    1        0.005  -9.261 -23.361  0.00  0.00    +0.192 C 
ATOM      7  O   LIG    1       -2.081 -11.344 -23.236  0.00  0.00    -0.461 OA
ATOM      8  C   LIG    1       -1.555  -9.875 -20.006  0.00  0.00    +0.085 C 
ENDROOT
BRANCH   6   9
ATOM      9  C   LIG    1        1.104  -8.297 -23.208  0.00  0.00    -0.212 A 
ATOM     10  C   LIG    1        0.863  -6.927 -23.359  0.00  0.00    +0.079 A 
ATOM     11  C   LIG    1        1.899  -6.026 -23.214  0.00  0.00    -0.022 A 
ATOM     12  C   LIG    1        3.183  -6.483 -22.918  0.00  0.00    +0.302 A 
ATOM     13  O   LIG    1        4.201  -5.595 -22.775  0.00  0.00    -0.607 OA
ATOM     14  C   LIG    1        3.424  -7.842 -22.767  0.00  0.00    -0.196 A 
ATOM     15  C   LIG    1        2.394  -8.747 -22.904  0.00  0.00    +0.164 A 
BRANCH  14  16
ATOM     16  N   LIG    1        4.789  -8.319 -22.451  0.00  0.00    +0.069 N 
ATOM     17  O   LIG    1        5.554  -8.598 -23.345  0.00  0.00    -0.155 OA
ATOM     18  O   LIG    1        5.139  -8.430 -21.299  0.00  0.00    -0.249 OA
ENDBRANCH  14  16
BRANCH  11  19
ATOM     19  O   LIG    1        1.669  -4.694 -23.362  0.00  0.00    -0.480 OA
ATOM     20  H   LIG    1        1.607  -4.211 -22.527  0.00  0.00    +0.369 HD
ENDBRANCH  11  19
ENDBRANCH   6   9
BRANCH   1  26
ATOM     21  C   LIG    1       -4.378 -10.512 -18.706  0.00  0.00    +0.128 A 
ATOM     22  C   LIG    1       -4.890 -10.471 -17.427  0.00  0.00    -0.066 A 
ATOM     23  C   LIG    1       -4.797 -11.584 -16.602  0.00  0.00    +0.149 A 
ATOM     24  C   LIG    1       -4.187 -12.750 -17.064  0.00  0.00    +0.088 A 
ATOM     25  C   LIG    1       -3.671 -12.801 -18.343  0.00  0.00    +0.080 A 
ATOM     26  C   LIG    1       -3.765 -11.678 -19.176  0.00  0.00    -0.045 A 
BRANCH  22  27
ATOM     27  N   LIG    1       -5.539  -9.237 -16.930  0.00  0.00    +0.037 N 
ATOM     28  O   LIG    1       -6.559  -9.308 -16.286  0.00  0.00    -0.136 OA
ATOM     29  O   LIG    1       -5.048  -8.158 -17.169  0.00  0.00    -0.164 OA
ENDBRANCH  22  27
BRANCH  23  30
ATOM     30  O   LIG    1       -5.302 -11.538 -15.343  0.00  0.00    -0.462 OA
ATOM     31  H   LIG    1       -5.732 -12.357 -15.061  0.00  0.00    +0.402 HD
ENDBRANCH  23  30
BRANCH  24  32
ATOM     32  O   LIG    1       -4.098 -13.838 -16.252  0.00  0.00    -0.472 OA
ATOM     33  H   LIG    1       -4.954 -14.182 -15.960  0.00  0.00    +0.396 HD
ENDBRANCH  24  32
ENDBRANCH   1  26
TORSDOF 7
ENDMDL
MODEL 3
REMARK VINA RESULT:      -7.5      9.895     11.952
REMARK  Name = CHEMBL265218
REMARK                            x       y       z     vdW  Elec       q    Type
REMARK                         _______ _______ _______ _____ _____    ______ ____
ROOT
ATOM      1  C   LIG    1       -3.364  -9.839 -20.535  0.00  0.00    +0.095 C 
ATOM      2  C   LIG    1       -2.069  -9.485 -20.685  0.00  0.00    -0.157 C 
ATOM      3  C   LIG    1       -1.499  -8.801 -21.843  0.00  0.00    +0.424 C 
ATOM      4  C   LIG    1       -0.070  -8.587 -21.641  0.00  0.00    -0.275 C 
ATOM      5  C   LIG    1        0.315  -9.153 -20.296  0.00  0.00    +0.100 C 
ATOM      6  C   LIG    1        0.769  -7.983 -22.511  0.00  0.00    +0.192 C 
ATOM      7  O   LIG    1       -2.126  -8.460 -22.831  0.00  0.00    -0.461 OA
ATOM      8  C   LIG    1       -0.969  -9.724 -19.680  0.00  0.00    +0.085 C 
ENDROOT
BRANCH   6   9
ATOM      9  C   LIG    1        2.213  -7.952 -22.239  0.00  0.00    -0.212 A 
ATOM     10  C   LIG    1        2.704  -7.247 -21.134  0.00  0.00    +0.079 A 
ATOM     11  C   LIG    1        4.062  -7.222 -20.884  0.00  0.00    -0.022 A 
ATOM     12  C   LIG    1        4.940  -7.897 -21.732  0.00  0.00    +0.302 A 
ATOM     13  O   LIG    1        6.275  -7.871 -21.483  0.00  0.00    -0.607 OA
ATOM     14  C   LIG    1        4.453  -8.597 -22.828  0.00  0.00    -0.196 A 
ATOM     15  C   LIG    1        3.099  -8.633 -23.081  0.00  0.00    +0.164 A 
BRANCH  14  16
ATOM     16  N   LIG    1        5.391  -9.313 -23.721  0.00  0.00    +0.069 N 
ATOM     17  O   LIG    1        5.710 -10.453 -23.476  0.00  0.00    -0.155 OA
ATOM     18  O   LIG    1        5.838  -8.757 -24.698  0.00  0.00    -0.249 OA
ENDBRANCH  14  16
BRANCH  11  19
ATOM     19  O   LIG    1        4.543  -6.536 -19.812  0.00  0.00    -0.480 OA
ATOM     20  H   LIG    1        5.016  -7.088 -19.174  0.00  0.00    +0.369 HD
ENDBRANCH  11  19
ENDBRANCH   6   9
BRANCH   1  26
ATOM     21  C   LIG    1       -3.607 -11.743 -18.955  0.00  0.00    +0.128 A 
ATOM     22  C   LIG    1       -4.046 -12.261 -17.755  0.00  0.00    -0.066 A 
ATOM     23  C   LIG    1       -4.711 -11.449 -16.846  0.00  0.00    +0.149 A 
ATOM     24  C   LIG    1       -4.938 -10.105 -17.141  0.00  0.00    +0.088 A 
ATOM     25  C   LIG    1       -4.503  -9.577 -18.340  0.00  0.00    +0.080 A 
ATOM     26  C   LIG    1       -3.832 -10.395 -19.258  0.00  0.00    -0.045 A 
BRANCH  22  27
ATOM     27  N   LIG    1       -3.808 -13.687 -17.436  0.00  0.00    +0.037 N 
ATOM     28  O   LIG    1       -3.645 -14.029 -16.289  0.00  0.00    -0.136 OA
ATOM     29  O   LIG    1       -3.777 -14.507 -18.323  0.00  0.00    -0.164 OA
ENDBRANCH  22  27
BRANCH  23  30
ATOM     30  O   LIG    1       -5.141 -11.966 -15.666  0.00  0.00    -0.462 OA
ATOM     31  H   LIG    1       -5.659 -11.349 -15.132  0.00  0.00    +0.402 HD
ENDBRANCH  23  30
BRANCH  24  32
ATOM     32  O   LIG    1       -5.590  -9.314 -16.247  0.00  0.00    -0.472 OA
ATOM     33  H   LIG    1       -5.076  -8.552 -15.949  0.00  0.00    +0.396 HD
ENDBRANCH  24  32
ENDBRANCH   1  26
TORSDOF 7
ENDMDL
MODEL 4
REMARK VINA RESULT:      -7.5      9.236     11.002
REMARK  Name = CHEMBL265218
REMARK                            x       y       z     vdW  Elec       q    Type
REMARK                         _______ _______ _______ _____ _____    ______ ____
ROOT
ATOM      1  C   LIG    1       -3.243 -11.888 -20.435  0.00  0.00    +0.095 C 
ATOM      2  C   LIG    1       -2.313 -11.001 -20.849  0.00  0.00    -0.157 C 
ATOM      3  C   LIG    1       -1.752 -10.918 -22.195  0.00  0.00    +0.424 C 
ATOM      4  C   LIG    1       -0.776  -9.834 -22.262  0.00  0.00    -0.275 C 
ATOM      5  C   LIG    1       -0.692  -9.180 -20.904  0.00  0.00    +0.100 C 
ATOM      6  C   LIG    1       -0.067  -9.477 -23.355  0.00  0.00    +0.192 C 
ATOM      7  O   LIG    1       -2.056 -11.645 -23.125  0.00  0.00    -0.461 OA
ATOM      8  C   LIG    1       -1.683  -9.924 -20.000  0.00  0.00    +0.085 C 
ENDROOT
BRANCH   6   9
ATOM      9  C   LIG    1        0.981  -8.452 -23.248  0.00  0.00    -0.212 A 
ATOM     10  C   LIG    1        2.232  -8.780 -22.714  0.00  0.00    +0.079 A 
ATOM     11  C   LIG    1        3.213  -7.813 -22.616  0.00  0.00    -0.022 A 
ATOM     12  C   LIG    1        2.955  -6.513 -23.050  0.00  0.00    +0.302 A 
ATOM     13  O   LIG    1        3.921  -5.563 -22.954  0.00  0.00    -0.607 OA
ATOM     14  C   LIG    1        1.714  -6.186 -23.581  0.00  0.00    -0.196 A 
ATOM     15  C   LIG    1        0.732  -7.147 -23.687  0.00  0.00    +0.164 A 
BRANCH  14  16
ATOM     16  N   LIG    1        1.449  -4.805 -24.040  0.00  0.00    +0.069 N 
ATOM     17  O   LIG    1        0.620  -4.129 -23.476  0.00  0.00    -0.155 OA
ATOM     18  O   LIG    1        2.061  -4.352 -24.980  0.00  0.00    -0.249 OA
ENDBRANCH  14  16
BRANCH  11  19
ATOM     19  O   LIG    1        4.430  -8.128 -22.096  0.00  0.00    -0.480 OA
ATOM     20  H   LIG    1        4.536  -9.066 -21.887  0.00  0.00    +0.369 HD
ENDBRANCH  11  19
ENDBRANCH   6   9
BRANCH   1  26
ATOM     21  C   LIG    1       -4.422 -10.570 -18.687  0.00  0.00    +0.128 A 
ATOM     22  C   LIG    1       -4.967 -10.463 -17.426  0.00  0.00    -0.066 A 
ATOM     23  C   LIG    1       -4.926 -11.542 -16.553  0.00  0.00    +0.149 A 
ATOM     24  C   LIG    1       -4.333 -12.741 -16.948  0.00  0.00    +0.088 A 
ATOM     25  C   LIG    1       -3.783 -12.858 -18.209  0.00  0.00    +0.080 A 
ATOM     26  C   LIG    1       -3.825 -11.770 -19.091  0.00  0.00    -0.045 A 
BRANCH  22  27
ATOM     27  N   LIG    1       -5.598  -9.193 -17.000  0.00  0.00    +0.037 N 
ATOM     28  O   LIG    1       -5.071  -8.138 -17.267  0.00  0.00    -0.136 OA
ATOM     29  O   LIG    1       -6.640  -9.211 -16.388  0.00  0.00    -0.164 OA
ENDBRANCH  22  27
BRANCH  23  30
ATOM     30  O   LIG    1       -5.465 -11.430 -15.312  0.00  0.00    -0.462 OA
ATOM     31  H   LIG    1       -5.835 -12.254 -14.968  0.00  0.00    +0.402 HD
ENDBRANCH  23  30
BRANCH  24  32
ATOM     32  O   LIG    1       -4.295 -13.795 -16.090  0.00  0.00    -0.472 OA
ATOM     33  H   LIG    1       -5.154 -14.025 -15.711  0.00  0.00    +0.396 HD
ENDBRANCH  24  32
ENDBRANCH   1  26
TORSDOF 7
ENDMDL
MODEL 5
REMARK VINA RESULT:      -7.5      9.420     11.532
REMARK  Name = CHEMBL265218
REMARK                            x       y       z     vdW  Elec       q    Type
REMARK                         _______ _______ _______ _____ _____    ______ ____
ROOT
ATOM      1  C   LIG    1       -3.478 -10.188 -20.683  0.00  0.00    +0.095 C 
ATOM      2  C   LIG    1       -2.275  -9.597 -20.855  0.00  0.00    -0.157 C 
ATOM      3  C   LIG    1       -1.819  -8.926 -22.069  0.00  0.00    +0.424 C 
ATOM      4  C   LIG    1       -0.467  -8.412 -21.876  0.00  0.00    -0.275 C 
ATOM      5  C   LIG    1       -0.017  -8.759 -20.479  0.00  0.00    +0.100 C 
ATOM      6  C   LIG    1        0.260  -7.737 -22.795  0.00  0.00    +0.192 C 
ATOM      7  O   LIG    1       -2.472  -8.813 -23.092  0.00  0.00    -0.461 OA
ATOM      8  C   LIG    1       -1.179  -9.514 -19.821  0.00  0.00    +0.085 C 
ENDROOT
BRANCH   6   9
ATOM      9  C   LIG    1        1.660  -7.392 -22.514  0.00  0.00    -0.212 A 
ATOM     10  C   LIG    1        2.261  -6.308 -23.166  0.00  0.00    +0.079 A 
ATOM     11  C   LIG    1        3.577  -5.988 -22.898  0.00  0.00    -0.022 A 
ATOM     12  C   LIG    1        4.305  -6.745 -21.979  0.00  0.00    +0.302 A 
ATOM     13  O   LIG    1        5.599  -6.428 -21.717  0.00  0.00    -0.607 OA
ATOM     14  C   LIG    1        3.710  -7.820 -21.332  0.00  0.00    -0.196 A 
ATOM     15  C   LIG    1        2.395  -8.142 -21.589  0.00  0.00    +0.164 A 
BRANCH  14  16
ATOM     16  N   LIG    1        4.489  -8.617 -20.358  0.00  0.00    +0.069 N 
ATOM     17  O   LIG    1        4.564  -8.258 -19.206  0.00  0.00    -0.155 OA
ATOM     18  O   LIG    1        5.050  -9.627 -20.715  0.00  0.00    -0.249 OA
ENDBRANCH  14  16
BRANCH  11  19
ATOM     19  O   LIG    1        4.164  -4.938 -23.530  0.00  0.00    -0.480 OA
ATOM     20  H   LIG    1        3.818  -4.075 -23.262  0.00  0.00    +0.369 HD
ENDBRANCH  11  19
ENDBRANCH   6   9
BRANCH   1  26
ATOM     21  C   LIG    1       -3.622 -12.041 -19.033  0.00  0.00    +0.128 A 
ATOM     22  C   LIG    1       -3.983 -12.520 -17.791  0.00  0.00    -0.066 A 
ATOM     23  C   LIG    1       -4.584 -11.678 -16.866  0.00  0.00    +0.149 A 
ATOM     24  C   LIG    1       -4.827 -10.343 -17.186  0.00  0.00    +0.088 A 
ATOM     25  C   LIG    1       -4.470  -9.854 -18.427  0.00  0.00    +0.080 A 
ATOM     26  C   LIG    1       -3.862 -10.702 -19.361  0.00  0.00    -0.045 A 
BRANCH  22  27
ATOM     27  N   LIG    1       -3.729 -13.937 -17.445  0.00  0.00    +0.037 N 
ATOM     28  O   LIG    1       -3.437 -14.728 -18.312  0.00  0.00    -0.136 OA
ATOM     29  O   LIG    1       -3.813 -14.303 -16.296  0.00  0.00    -0.164 OA
ENDBRANCH  22  27
BRANCH  23  30
ATOM     30  O   LIG    1       -4.938 -12.156 -15.645  0.00  0.00    -0.462 OA
ATOM     31  H   LIG    1       -5.418 -11.521 -15.097  0.00  0.00    +0.402 HD
ENDBRANCH  23  30
BRANCH  24  32
ATOM     32  O   LIG    1       -5.416  -9.522 -16.276  0.00  0.00    -0.472 OA
ATOM     33  H   LIG    1       -5.069  -9.616 -15.379  0.00  0.00    +0.396 HD
ENDBRANCH  24  32
ENDBRANCH   1  26
TORSDOF 7
ENDMDL
MODEL 6
REMARK VINA RESULT:      -7.1      9.895     11.861
REMARK  Name = CHEMBL265218
REMARK                            x       y       z     vdW  Elec       q    Type
REMARK                         _______ _______ _______ _____ _____    ______ ____
ROOT
ATOM      1  C   LIG    1       -2.340  -9.329 -21.107  0.00  0.00    +0.095 C 
ATOM      2  C   LIG    1       -1.021  -9.054 -21.011  0.00  0.00    -0.157 C 
ATOM      3  C   LIG    1       -0.328  -7.954 -21.676  0.00  0.00    +0.424 C 
ATOM      4  C   LIG    1        1.091  -7.979 -21.332  0.00  0.00    -0.275 C 
ATOM      5  C   LIG    1        1.339  -9.142 -20.404  0.00  0.00    +0.100 C 
ATOM      6  C   LIG    1        2.025  -7.106 -21.771  0.00  0.00    +0.192 C 
ATOM      7  O   LIG    1       -0.856  -7.136 -22.410  0.00  0.00    -0.461 OA
ATOM      8  C   LIG    1       -0.017  -9.828 -20.193  0.00  0.00    +0.085 C 
ENDROOT
BRANCH   6   9
ATOM      9  C   LIG    1        3.443  -7.326 -21.452  0.00  0.00    -0.212 A 
ATOM     10  C   LIG    1        4.263  -8.024 -22.346  0.00  0.00    +0.079 A 
ATOM     11  C   LIG    1        5.595  -8.227 -22.041  0.00  0.00    -0.022 A 
ATOM     12  C   LIG    1        6.118  -7.737 -20.845  0.00  0.00    +0.302 A 
ATOM     13  O   LIG    1        7.428  -7.938 -20.547  0.00  0.00    -0.607 OA
ATOM     14  C   LIG    1        5.305  -7.044 -19.958  0.00  0.00    -0.196 A 
ATOM     15  C   LIG    1        3.977  -6.832 -20.257  0.00  0.00    +0.164 A 
BRANCH  14  16
ATOM     16  N   LIG    1        5.869  -6.526 -18.691  0.00  0.00    +0.069 N 
ATOM     17  O   LIG    1        6.521  -5.508 -18.691  0.00  0.00    -0.155 OA
ATOM     18  O   LIG    1        5.677  -7.122 -17.656  0.00  0.00    -0.249 OA
ENDBRANCH  14  16
BRANCH  11  19
ATOM     19  O   LIG    1        6.395  -8.906 -22.906  0.00  0.00    -0.480 OA
ATOM     20  H   LIG    1        6.852  -8.341 -23.544  0.00  0.00    +0.369 HD
ENDBRANCH  11  19
ENDBRANCH   6   9
BRANCH   1  26
ATOM     21  C   LIG    1       -3.602 -10.045 -19.089  0.00  0.00    +0.128 A 
ATOM     22  C   LIG    1       -4.159 -11.035 -18.308  0.00  0.00    -0.066 A 
ATOM     23  C   LIG    1       -4.059 -12.365 -18.691  0.00  0.00    +0.149 A 
ATOM     24  C   LIG    1       -3.395 -12.708 -19.869  0.00  0.00    +0.088 A 
ATOM     25  C   LIG    1       -2.833 -11.724 -20.657  0.00  0.00    +0.080 A 
ATOM     26  C   LIG    1       -2.934 -10.381 -20.272  0.00  0.00    -0.045 A 
BRANCH  22  27
ATOM     27  N   LIG    1       -4.865 -10.678 -17.057  0.00  0.00    +0.037 N 
ATOM     28  O   LIG    1       -5.173 -11.542 -16.269  0.00  0.00    -0.136 OA
ATOM     29  O   LIG    1       -5.134  -9.523 -16.823  0.00  0.00    -0.164 OA
ENDBRANCH  22  27
BRANCH  23  30
ATOM     30  O   LIG    1       -4.610 -13.336 -17.918  0.00  0.00    -0.462 OA
ATOM     31  H   LIG    1       -5.440 -13.078 -17.493  0.00  0.00    +0.402 HD
ENDBRANCH  23  30
BRANCH  24  32
ATOM     32  O   LIG    1       -3.300 -14.013 -20.240  0.00  0.00    -0.472 OA
ATOM     33  H   LIG    1       -2.680 -14.172 -20.965  0.00  0.00    +0.396 HD
ENDBRANCH  24  32
ENDBRANCH   1  26
TORSDOF 7
ENDMDL
MODEL 7
REMARK VINA RESULT:      -7.0      9.225     12.101
REMARK  Name = CHEMBL265218
REMARK                            x       y       z     vdW  Elec       q    Type
REMARK                         _______ _______ _______ _____ _____    ______ ____
ROOT
ATOM      1  C   LIG    1       -0.332  -9.090 -23.495  0.00  0.00    +0.095 C 
ATOM      2  C   LIG    1       -0.984  -9.531 -22.397  0.00  0.00    -0.157 C 
ATOM      3  C   LIG    1       -1.968 -10.609 -22.365  0.00  0.00    +0.424 C 
ATOM      4  C   LIG    1       -2.453 -10.799 -21.001  0.00  0.00    -0.275 C 
ATOM      5  C   LIG    1       -1.760  -9.805 -20.102  0.00  0.00    +0.100 C 
ATOM      6  C   LIG    1       -3.369 -11.712 -20.609  0.00  0.00    +0.192 C 
ATOM      7  O   LIG    1       -2.329 -11.255 -23.333  0.00  0.00    -0.461 OA
ATOM      8  C   LIG    1       -0.813  -8.995 -20.997  0.00  0.00    +0.085 C 
ENDROOT
BRANCH   6   9
ATOM      9  C   LIG    1       -3.867 -11.707 -19.227  0.00  0.00    -0.212 A 
ATOM     10  C   LIG    1       -3.740 -12.851 -18.430  0.00  0.00    +0.079 A 
ATOM     11  C   LIG    1       -4.209 -12.840 -17.131  0.00  0.00    -0.022 A 
ATOM     12  C   LIG    1       -4.808 -11.690 -16.617  0.00  0.00    +0.302 A 
ATOM     13  O   LIG    1       -5.269 -11.682 -15.339  0.00  0.00    -0.607 OA
ATOM     14  C   LIG    1       -4.934 -10.555 -17.406  0.00  0.00    -0.196 A 
ATOM     15  C   LIG    1       -4.463 -10.555 -18.700  0.00  0.00    +0.164 A 
BRANCH  14  16
ATOM     16  N   LIG    1       -5.570  -9.338 -16.852  0.00  0.00    +0.069 N 
ATOM     17  O   LIG    1       -6.684  -9.397 -16.386  0.00  0.00    -0.155 OA
ATOM     18  O   LIG    1       -4.975  -8.286 -16.866  0.00  0.00    -0.249 OA
ENDBRANCH  14  16
BRANCH  11  19
ATOM     19  O   LIG    1       -4.089 -13.950 -16.355  0.00  0.00    -0.480 OA
ATOM     20  H   LIG    1       -4.833 -14.563 -16.430  0.00  0.00    +0.369 HD
ENDBRANCH  11  19
ENDBRANCH   6   9
BRANCH   1  26
ATOM     21  C   LIG    1        2.068  -8.504 -23.218  0.00  0.00    +0.128 A 
ATOM     22  C   LIG    1        3.070  -7.565 -23.096  0.00  0.00    -0.066 A 
ATOM     23  C   LIG    1        2.764  -6.211 -23.115  0.00  0.00    +0.149 A 
ATOM     24  C   LIG    1        1.441  -5.793 -23.259  0.00  0.00    +0.088 A 
ATOM     25  C   LIG    1        0.431  -6.725 -23.381  0.00  0.00    +0.080 A 
ATOM     26  C   LIG    1        0.739  -8.092 -23.363  0.00  0.00    -0.045 A 
BRANCH  22  27
ATOM     27  N   LIG    1        4.476  -8.002 -22.942  0.00  0.00    +0.037 N 
ATOM     28  O   LIG    1        4.999  -8.669 -23.805  0.00  0.00    -0.136 OA
ATOM     29  O   LIG    1        5.101  -7.692 -21.956  0.00  0.00    -0.164 OA
ENDBRANCH  22  27
BRANCH  23  30
ATOM     30  O   LIG    1        3.755  -5.291 -22.994  0.00  0.00    -0.462 OA
ATOM     31  H   LIG    1        3.439  -4.385 -22.875  0.00  0.00    +0.402 HD
ENDBRANCH  23  30
BRANCH  24  32
ATOM     32  O   LIG    1        1.146  -4.465 -23.277  0.00  0.00    -0.472 OA
ATOM     33  H   LIG    1        1.327  -4.011 -22.443  0.00  0.00    +0.396 HD
ENDBRANCH  24  32
ENDBRANCH   1  26
TORSDOF 7
ENDMDL
MODEL 8
REMARK VINA RESULT:      -6.9     10.165     14.287
REMARK  Name = CHEMBL265218
REMARK                            x       y       z     vdW  Elec       q    Type
REMARK                         _______ _______ _______ _____ _____    ______ ____
ROOT
ATOM      1  C   LIG    1        3.050  -6.821 -21.217  0.00  0.00    +0.095 C 
ATOM      2  C   LIG    1        1.981  -7.640 -21.105  0.00  0.00    -0.157 C 
ATOM      3  C   LIG    1        0.641  -7.368 -21.618  0.00  0.00    +0.424 C 
ATOM      4  C   LIG    1       -0.247  -8.484 -21.306  0.00  0.00    -0.275 C 
ATOM      5  C   LIG    1        0.543  -9.530 -20.557  0.00  0.00    +0.100 C 
ATOM      6  C   LIG    1       -1.555  -8.567 -21.633  0.00  0.00    +0.192 C 
ATOM      7  O   LIG    1        0.314  -6.360 -22.219  0.00  0.00    -0.461 OA
ATOM      8  C   LIG    1        1.974  -8.991 -20.433  0.00  0.00    +0.085 C 
ENDROOT
BRANCH   6   9
ATOM      9  C   LIG    1       -2.366  -9.689 -21.139  0.00  0.00    -0.212 A 
ATOM     10  C   LIG    1       -2.770 -10.703 -22.016  0.00  0.00    +0.079 A 
ATOM     11  C   LIG    1       -3.531 -11.755 -21.547  0.00  0.00    -0.022 A 
ATOM     12  C   LIG    1       -3.896 -11.805 -20.202  0.00  0.00    +0.302 A 
ATOM     13  O   LIG    1       -4.645 -12.841 -19.743  0.00  0.00    -0.607 OA
ATOM     14  C   LIG    1       -3.495 -10.801 -19.331  0.00  0.00    -0.196 A 
ATOM     15  C   LIG    1       -2.730  -9.751 -19.790  0.00  0.00    +0.164 A 
BRANCH  14  16
ATOM     16  N   LIG    1       -3.885 -10.862 -17.905  0.00  0.00    +0.069 N 
ATOM     17  O   LIG    1       -3.448 -11.739 -17.195  0.00  0.00    -0.155 OA
ATOM     18  O   LIG    1       -4.642 -10.036 -17.449  0.00  0.00    -0.249 OA
ENDBRANCH  14  16
BRANCH  11  19
ATOM     19  O   LIG    1       -3.927 -12.740 -22.397  0.00  0.00    -0.480 OA
ATOM     20  H   LIG    1       -4.074 -13.594 -21.966  0.00  0.00    +0.369 HD
ENDBRANCH  11  19
ENDBRANCH   6   9
BRANCH   1  26
ATOM     21  C   LIG    1        4.877  -6.889 -19.533  0.00  0.00    +0.128 A 
ATOM     22  C   LIG    1        6.121  -7.322 -19.125  0.00  0.00    -0.066 A 
ATOM     23  C   LIG    1        6.879  -8.143 -19.948  0.00  0.00    +0.149 A 
ATOM     24  C   LIG    1        6.386  -8.536 -21.192  0.00  0.00    +0.088 A 
ATOM     25  C   LIG    1        5.142  -8.108 -21.610  0.00  0.00    +0.080 A 
ATOM     26  C   LIG    1        4.376  -7.279 -20.780  0.00  0.00    -0.045 A 
BRANCH  22  27
ATOM     27  N   LIG    1        6.650  -6.908 -17.806  0.00  0.00    +0.037 N 
ATOM     28  O   LIG    1        7.817  -6.618 -17.687  0.00  0.00    -0.136 OA
ATOM     29  O   LIG    1        5.914  -6.860 -16.848  0.00  0.00    -0.164 OA
ENDBRANCH  22  27
BRANCH  23  30
ATOM     30  O   LIG    1        8.103  -8.566 -19.541  0.00  0.00    -0.462 OA
ATOM     31  H   LIG    1        8.840  -8.090 -19.949  0.00  0.00    +0.402 HD
ENDBRANCH  23  30
BRANCH  24  32
ATOM     32  O   LIG    1        7.133  -9.341 -21.995  0.00  0.00    -0.472 OA
ATOM     33  H   LIG    1        8.055  -9.064 -22.082  0.00  0.00    +0.396 HD
ENDBRANCH  24  32
ENDBRANCH   1  26
TORSDOF 7
ENDMDL
MODEL 9
REMARK VINA RESULT:      -6.9      9.250     11.110
REMARK  Name = CHEMBL265218
REMARK                            x       y       z     vdW  Elec       q    Type
REMARK                         _______ _______ _______ _____ _____    ______ ____
ROOT
ATOM      1  C   LIG    1       -4.163 -11.236 -21.315  0.00  0.00    +0.095 C 
ATOM      2  C   LIG    1       -3.214 -10.343 -21.674  0.00  0.00    -0.157 C 
ATOM      3  C   LIG    1       -3.269  -9.461 -22.837  0.00  0.00    +0.424 C 
ATOM      4  C   LIG    1       -2.064  -8.639 -22.894  0.00  0.00    -0.275 C 
ATOM      5  C   LIG    1       -1.183  -8.995 -21.722  0.00  0.00    +0.100 C 
ATOM      6  C   LIG    1       -1.785  -7.714 -23.839  0.00  0.00    +0.192 C 
ATOM      7  O   LIG    1       -4.185  -9.418 -23.639  0.00  0.00    -0.461 OA
ATOM      8  C   LIG    1       -1.924 -10.084 -20.936  0.00  0.00    +0.085 C 
ENDROOT
BRANCH   6   9
ATOM      9  C   LIG    1       -0.473  -7.050 -23.852  0.00  0.00    -0.212 A 
ATOM     10  C   LIG    1       -0.386  -5.663 -23.686  0.00  0.00    +0.079 A 
ATOM     11  C   LIG    1        0.849  -5.045 -23.698  0.00  0.00    -0.022 A 
ATOM     12  C   LIG    1        2.006  -5.804 -23.877  0.00  0.00    +0.302 A 
ATOM     13  O   LIG    1        3.219  -5.194 -23.889  0.00  0.00    -0.607 OA
ATOM     14  C   LIG    1        1.920  -7.180 -24.042  0.00  0.00    -0.196 A 
ATOM     15  C   LIG    1        0.693  -7.805 -24.024  0.00  0.00    +0.164 A 
BRANCH  14  16
ATOM     16  N   LIG    1        3.152  -7.978 -24.230  0.00  0.00    +0.069 N 
ATOM     17  O   LIG    1        3.728  -8.437 -23.271  0.00  0.00    -0.155 OA
ATOM     18  O   LIG    1        3.584  -8.171 -25.343  0.00  0.00    -0.249 OA
ENDBRANCH  14  16
BRANCH  11  19
ATOM     19  O   LIG    1        0.937  -3.698 -23.539  0.00  0.00    -0.480 OA
ATOM     20  H   LIG    1        0.858  -3.406 -22.620  0.00  0.00    +0.369 HD
ENDBRANCH  11  19
ENDBRANCH   6   9
BRANCH   1  26
ATOM     21  C   LIG    1       -3.551 -13.268 -20.021  0.00  0.00    +0.128 A 
ATOM     22  C   LIG    1       -3.442 -13.944 -18.824  0.00  0.00    -0.066 A 
ATOM     23  C   LIG    1       -3.825 -13.330 -17.639  0.00  0.00    +0.149 A 
ATOM     24  C   LIG    1       -4.320 -12.027 -17.652  0.00  0.00    +0.088 A 
ATOM     25  C   LIG    1       -4.433 -11.342 -18.845  0.00  0.00    +0.080 A 
ATOM     26  C   LIG    1       -4.047 -11.960 -20.042  0.00  0.00    -0.045 A 
BRANCH  22  27
ATOM     27  N   LIG    1       -2.918 -15.328 -18.803  0.00  0.00    +0.037 N 
ATOM     28  O   LIG    1       -3.391 -16.164 -19.538  0.00  0.00    -0.136 OA
ATOM     29  O   LIG    1       -2.017 -15.622 -18.053  0.00  0.00    -0.164 OA
ENDBRANCH  22  27
BRANCH  23  30
ATOM     30  O   LIG    1       -3.716 -14.001 -16.464  0.00  0.00    -0.462 OA
ATOM     31  H   LIG    1       -2.827 -13.986 -16.082  0.00  0.00    +0.402 HD
ENDBRANCH  23  30
BRANCH  24  32
ATOM     32  O   LIG    1       -4.693 -11.430 -16.488  0.00  0.00    -0.472 OA
ATOM     33  H   LIG    1       -5.221 -11.995 -15.908  0.00  0.00    +0.396 HD
ENDBRANCH  24  32
ENDBRANCH   1  26
TORSDOF 7
ENDMDL
