MODEL 1
REMARK VINA RESULT:      -7.2      0.000      0.000
REMARK  Name = CHEMBL170549
REMARK                            x       y       z     vdW  Elec       q    Type
REMARK                         _______ _______ _______ _____ _____    ______ ____
ROOT
ATOM      1  C   LIG    1       -6.496  -1.231 -18.565  0.00  0.00    +0.150 A 
ATOM      2  C   LIG    1       -5.988  -1.978 -19.633  0.00  0.00    -0.122 A 
ATOM      3  C   LIG    1       -4.939  -1.467 -20.404  0.00  0.00    +0.113 A 
ATOM      4  C   LIG    1       -4.409  -0.227 -20.106  0.00  0.00    +0.064 A 
ATOM      5  C   LIG    1       -4.920   0.512 -19.040  0.00  0.00    +0.137 A 
ATOM      6  C   LIG    1       -5.962   0.004 -18.275  0.00  0.00    -0.081 A 
ENDROOT
BRANCH   2   7
ATOM      7  C   LIG    1       -6.557  -3.301 -19.945  0.00  0.00    +0.524 C 
ATOM      8  O   LIG    1       -7.278  -3.441 -20.923  0.00  0.00    -0.672 OA
ATOM      9  O   LIG    1       -6.308  -4.258 -19.225  0.00  0.00    -0.669 OA
ENDBRANCH   2   7
BRANCH   6  10
ATOM     10  N   LIG    1       -6.500   0.794 -17.144  0.00  0.00    +0.044 N 
ATOM     11  O   LIG    1       -7.045   1.853 -17.351  0.00  0.00    -0.154 OA
ATOM     12  O   LIG    1       -6.394   0.379 -16.013  0.00  0.00    -0.171 OA
ENDBRANCH   6  10
BRANCH   4  13
ATOM     13  O   LIG    1       -3.389   0.273 -20.853  0.00  0.00    -0.477 OA
ATOM     14  H   LIG    1       -3.675   0.854 -21.572  0.00  0.00    +0.387 HD
ENDBRANCH   4  13
BRANCH   5  15
ATOM     15  O   LIG    1       -4.397   1.731 -18.750  0.00  0.00    -0.465 OA
ATOM     16  H   LIG    1       -3.733   1.716 -18.047  0.00  0.00    +0.393 HD
ENDBRANCH   5  15
TORSDOF 4
ENDMDL
MODEL 2
REMARK VINA RESULT:      -6.9      1.618      3.141
REMARK  Name = CHEMBL170549
REMARK                            x       y       z     vdW  Elec       q    Type
REMARK                         _______ _______ _______ _____ _____    ______ ____
ROOT
ATOM      1  C   LIG    1       -5.724  -2.097 -19.573  0.00  0.00    +0.150 A 
ATOM      2  C   LIG    1       -7.025  -2.314 -19.108  0.00  0.00    -0.122 A 
ATOM      3  C   LIG    1       -7.676  -1.322 -18.368  0.00  0.00    +0.113 A 
ATOM      4  C   LIG    1       -7.029  -0.131 -18.100  0.00  0.00    +0.064 A 
ATOM      5  C   LIG    1       -5.732   0.079 -18.566  0.00  0.00    +0.137 A 
ATOM      6  C   LIG    1       -5.087  -0.907 -19.302  0.00  0.00    -0.081 A 
ENDROOT
BRANCH   2   7
ATOM      7  C   LIG    1       -7.710  -3.586 -19.398  0.00  0.00    +0.524 C 
ATOM      8  O   LIG    1       -7.898  -3.929 -20.557  0.00  0.00    -0.672 OA
ATOM      9  O   LIG    1       -8.093  -4.298 -18.479  0.00  0.00    -0.669 OA
ENDBRANCH   2   7
BRANCH   6  10
ATOM     10  N   LIG    1       -3.710  -0.678 -19.794  0.00  0.00    +0.044 N 
ATOM     11  O   LIG    1       -3.492   0.204 -20.592  0.00  0.00    -0.154 OA
ATOM     12  O   LIG    1       -2.803  -1.372 -19.398  0.00  0.00    -0.171 OA
ENDBRANCH   6  10
BRANCH   4  13
ATOM     13  O   LIG    1       -7.658   0.837 -17.380  0.00  0.00    -0.477 OA
ATOM     14  H   LIG    1       -7.382   0.882 -16.455  0.00  0.00    +0.387 HD
ENDBRANCH   4  13
BRANCH   5  15
ATOM     15  O   LIG    1       -5.099   1.250 -18.302  0.00  0.00    -0.465 OA
ATOM     16  H   LIG    1       -4.402   1.179 -17.636  0.00  0.00    +0.393 HD
ENDBRANCH   5  15
TORSDOF 4
ENDMDL
MODEL 3
REMARK VINA RESULT:      -6.7      1.716      4.367
REMARK  Name = CHEMBL170549
REMARK                            x       y       z     vdW  Elec       q    Type
REMARK                         _______ _______ _______ _____ _____    ______ ____
ROOT
ATOM      1  C   LIG    1       -4.981  -1.049 -19.935  0.00  0.00    +0.150 A 
ATOM      2  C   LIG    1       -4.486   0.258 -19.885  0.00  0.00    -0.122 A 
ATOM      3  C   LIG    1       -5.138   1.220 -19.106  0.00  0.00    +0.113 A 
ATOM      4  C   LIG    1       -6.266   0.873 -18.389  0.00  0.00    +0.064 A 
ATOM      5  C   LIG    1       -6.754  -0.432 -18.443  0.00  0.00    +0.137 A 
ATOM      6  C   LIG    1       -6.107  -1.386 -19.217  0.00  0.00    -0.081 A 
ENDROOT
BRANCH   2   7
ATOM      7  C   LIG    1       -3.282   0.622 -20.651  0.00  0.00    +0.524 C 
ATOM      8  O   LIG    1       -2.487  -0.244 -20.988  0.00  0.00    -0.672 OA
ATOM      9  O   LIG    1       -3.076   1.791 -20.948  0.00  0.00    -0.669 OA
ENDBRANCH   2   7
BRANCH   6  10
ATOM     10  N   LIG    1       -6.629  -2.771 -19.271  0.00  0.00    +0.044 N 
ATOM     11  O   LIG    1       -5.863  -3.706 -19.281  0.00  0.00    -0.154 OA
ATOM     12  O   LIG    1       -7.822  -2.965 -19.304  0.00  0.00    -0.171 OA
ENDBRANCH   6  10
BRANCH   4  13
ATOM     13  O   LIG    1       -6.902   1.806 -17.630  0.00  0.00    -0.477 OA
ATOM     14  H   LIG    1       -6.704   1.746 -16.685  0.00  0.00    +0.387 HD
ENDBRANCH   4  13
BRANCH   5  15
ATOM     15  O   LIG    1       -7.863  -0.770 -17.738  0.00  0.00    -0.465 OA
ATOM     16  H   LIG    1       -7.899  -0.380 -16.853  0.00  0.00    +0.393 HD
ENDBRANCH   5  15
TORSDOF 4
ENDMDL
MODEL 4
REMARK VINA RESULT:      -6.6      1.124      3.673
REMARK  Name = CHEMBL170549
REMARK                            x       y       z     vdW  Elec       q    Type
REMARK                         _______ _______ _______ _____ _____    ______ ____
ROOT
ATOM      1  C   LIG    1       -4.830   0.614 -19.059  0.00  0.00    +0.150 A 
ATOM      2  C   LIG    1       -4.229  -0.043 -20.137  0.00  0.00    -0.122 A 
ATOM      3  C   LIG    1       -4.697  -1.299 -20.537  0.00  0.00    +0.113 A 
ATOM      4  C   LIG    1       -5.754  -1.883 -19.866  0.00  0.00    +0.064 A 
ATOM      5  C   LIG    1       -6.349  -1.223 -18.792  0.00  0.00    +0.137 A 
ATOM      6  C   LIG    1       -5.883   0.024 -18.395  0.00  0.00    -0.081 A 
ENDROOT
BRANCH   2   7
ATOM      7  C   LIG    1       -3.104   0.586 -20.850  0.00  0.00    +0.524 C 
ATOM      8  O   LIG    1       -2.204  -0.107 -21.306  0.00  0.00    -0.672 OA
ATOM      9  O   LIG    1       -3.068   1.801 -20.985  0.00  0.00    -0.669 OA
ENDBRANCH   2   7
BRANCH   6  10
ATOM     10  N   LIG    1       -6.520   0.721 -17.254  0.00  0.00    +0.044 N 
ATOM     11  O   LIG    1       -6.428   0.262 -16.139  0.00  0.00    -0.154 OA
ATOM     12  O   LIG    1       -7.130   1.748 -17.438  0.00  0.00    -0.171 OA
ENDBRANCH   6  10
BRANCH   4  13
ATOM     13  O   LIG    1       -6.213  -3.104 -20.252  0.00  0.00    -0.477 OA
ATOM     14  H   LIG    1       -5.645  -3.553 -20.894  0.00  0.00    +0.387 HD
ENDBRANCH   4  13
BRANCH   5  15
ATOM     15  O   LIG    1       -7.387  -1.799 -18.134  0.00  0.00    -0.465 OA
ATOM     16  H   LIG    1       -7.550  -1.429 -17.256  0.00  0.00    +0.393 HD
ENDBRANCH   5  15
TORSDOF 4
ENDMDL
MODEL 5
REMARK VINA RESULT:      -6.1      9.252     11.144
REMARK  Name = CHEMBL170549
REMARK                            x       y       z     vdW  Elec       q    Type
REMARK                         _______ _______ _______ _____ _____    ______ ____
ROOT
ATOM      1  C   LIG    1       -4.161 -10.575 -18.757  0.00  0.00    +0.150 A 
ATOM      2  C   LIG    1       -3.548 -11.757 -19.187  0.00  0.00    -0.122 A 
ATOM      3  C   LIG    1       -3.585 -12.896 -18.376  0.00  0.00    +0.113 A 
ATOM      4  C   LIG    1       -4.230 -12.849 -17.155  0.00  0.00    +0.064 A 
ATOM      5  C   LIG    1       -4.840 -11.668 -16.733  0.00  0.00    +0.137 A 
ATOM      6  C   LIG    1       -4.802 -10.537 -17.539  0.00  0.00    -0.081 A 
ENDROOT
BRANCH   2   7
ATOM      7  C   LIG    1       -2.863 -11.801 -20.490  0.00  0.00    +0.524 C 
ATOM      8  O   LIG    1       -2.670 -10.768 -21.116  0.00  0.00    -0.672 OA
ATOM      9  O   LIG    1       -2.489 -12.873 -20.948  0.00  0.00    -0.669 OA
ENDBRANCH   2   7
BRANCH   6  10
ATOM     10  N   LIG    1       -5.452  -9.286 -17.085  0.00  0.00    +0.044 N 
ATOM     11  O   LIG    1       -6.512  -9.331 -16.507  0.00  0.00    -0.154 OA
ATOM     12  O   LIG    1       -4.920  -8.220 -17.293  0.00  0.00    -0.171 OA
ENDBRANCH   6  10
BRANCH   4  13
ATOM     13  O   LIG    1       -4.269 -13.955 -16.364  0.00  0.00    -0.477 OA
ATOM     14  H   LIG    1       -4.636 -14.737 -16.799  0.00  0.00    +0.387 HD
ENDBRANCH   4  13
BRANCH   5  15
ATOM     15  O   LIG    1       -5.472 -11.625 -15.533  0.00  0.00    -0.465 OA
ATOM     16  H   LIG    1       -5.463 -12.464 -15.054  0.00  0.00    +0.393 HD
ENDBRANCH   5  15
TORSDOF 4
ENDMDL
MODEL 6
REMARK VINA RESULT:      -5.9      1.662      4.257
REMARK  Name = CHEMBL170549
REMARK                            x       y       z     vdW  Elec       q    Type
REMARK                         _______ _______ _______ _____ _____    ______ ____
ROOT
ATOM      1  C   LIG    1       -6.168  -0.821 -18.588  0.00  0.00    +0.150 A 
ATOM      2  C   LIG    1       -5.884   0.463 -18.112  0.00  0.00    -0.122 A 
ATOM      3  C   LIG    1       -4.964   1.270 -18.791  0.00  0.00    +0.113 A 
ATOM      4  C   LIG    1       -4.343   0.794 -19.928  0.00  0.00    +0.064 A 
ATOM      5  C   LIG    1       -4.631  -0.487 -20.397  0.00  0.00    +0.137 A 
ATOM      6  C   LIG    1       -5.544  -1.288 -19.723  0.00  0.00    -0.081 A 
ENDROOT
BRANCH   2   7
ATOM      7  C   LIG    1       -6.551   0.966 -16.899  0.00  0.00    +0.524 C 
ATOM      8  O   LIG    1       -6.385   0.397 -15.829  0.00  0.00    -0.672 OA
ATOM      9  O   LIG    1       -7.273   1.952 -16.962  0.00  0.00    -0.669 OA
ENDBRANCH   2   7
BRANCH   6  10
ATOM     10  N   LIG    1       -5.846  -2.647 -20.226  0.00  0.00    +0.044 N 
ATOM     11  O   LIG    1       -5.654  -3.609 -19.519  0.00  0.00    -0.154 OA
ATOM     12  O   LIG    1       -6.284  -2.794 -21.343  0.00  0.00    -0.171 OA
ENDBRANCH   6  10
BRANCH   4  13
ATOM     13  O   LIG    1       -3.448   1.576 -20.592  0.00  0.00    -0.477 OA
ATOM     14  H   LIG    1       -3.434   1.433 -21.548  0.00  0.00    +0.387 HD
ENDBRANCH   4  13
BRANCH   5  15
ATOM     15  O   LIG    1       -4.018  -0.952 -21.516  0.00  0.00    -0.465 OA
ATOM     16  H   LIG    1       -4.609  -1.418 -22.123  0.00  0.00    +0.393 HD
ENDBRANCH   5  15
TORSDOF 4
ENDMDL
MODEL 7
REMARK VINA RESULT:      -5.8      3.382      5.757
REMARK  Name = CHEMBL170549
REMARK                            x       y       z     vdW  Elec       q    Type
REMARK                         _______ _______ _______ _____ _____    ______ ____
ROOT
ATOM      1  C   LIG    1       -6.563  -4.100 -19.148  0.00  0.00    +0.150 A 
ATOM      2  C   LIG    1       -6.464  -3.161 -20.179  0.00  0.00    -0.122 A 
ATOM      3  C   LIG    1       -7.445  -3.112 -21.174  0.00  0.00    +0.113 A 
ATOM      4  C   LIG    1       -8.509  -3.991 -21.132  0.00  0.00    +0.064 A 
ATOM      5  C   LIG    1       -8.603  -4.926 -20.101  0.00  0.00    +0.137 A 
ATOM      6  C   LIG    1       -7.627  -4.974 -19.114  0.00  0.00    -0.081 A 
ENDROOT
BRANCH   2   7
ATOM      7  C   LIG    1       -5.327  -2.224 -20.217  0.00  0.00    +0.524 C 
ATOM      8  O   LIG    1       -4.552  -2.164 -19.273  0.00  0.00    -0.672 OA
ATOM      9  O   LIG    1       -5.160  -1.506 -21.193  0.00  0.00    -0.669 OA
ENDBRANCH   2   7
BRANCH   6  10
ATOM     10  N   LIG    1       -7.732  -5.968 -18.021  0.00  0.00    +0.044 N 
ATOM     11  O   LIG    1       -6.938  -6.877 -17.953  0.00  0.00    -0.154 OA
ATOM     12  O   LIG    1       -8.611  -5.870 -17.198  0.00  0.00    -0.171 OA
ENDBRANCH   6  10
BRANCH   4  13
ATOM     13  O   LIG    1       -9.466  -3.947 -22.098  0.00  0.00    -0.477 OA
ATOM     14  H   LIG    1       -9.305  -4.546 -22.840  0.00  0.00    +0.387 HD
ENDBRANCH   4  13
BRANCH   5  15
ATOM     15  O   LIG    1       -9.649  -5.789 -20.063  0.00  0.00    -0.465 OA
ATOM     16  H   LIG    1       -9.683  -6.399 -20.812  0.00  0.00    +0.393 HD
ENDBRANCH   5  15
TORSDOF 4
ENDMDL
MODEL 8
REMARK VINA RESULT:      -5.8      9.479     11.465
REMARK  Name = CHEMBL170549
REMARK                            x       y       z     vdW  Elec       q    Type
REMARK                         _______ _______ _______ _____ _____    ______ ____
ROOT
ATOM      1  C   LIG    1       -3.373 -11.642 -18.735  0.00  0.00    +0.150 A 
ATOM      2  C   LIG    1       -3.471 -10.282 -19.045  0.00  0.00    -0.122 A 
ATOM      3  C   LIG    1       -4.260  -9.441 -18.253  0.00  0.00    +0.113 A 
ATOM      4  C   LIG    1       -4.938  -9.960 -17.167  0.00  0.00    +0.064 A 
ATOM      5  C   LIG    1       -4.835 -11.317 -16.863  0.00  0.00    +0.137 A 
ATOM      6  C   LIG    1       -4.052 -12.151 -17.650  0.00  0.00    -0.081 A 
ENDROOT
BRANCH   2   7
ATOM      7  C   LIG    1       -2.745  -9.734 -20.204  0.00  0.00    +0.524 C 
ATOM      8  O   LIG    1       -1.777  -9.007 -20.031  0.00  0.00    -0.672 OA
ATOM      9  O   LIG    1       -3.111 -10.006 -21.339  0.00  0.00    -0.669 OA
ENDBRANCH   2   7
BRANCH   6  10
ATOM     10  N   LIG    1       -3.947 -13.591 -17.323  0.00  0.00    +0.044 N 
ATOM     11  O   LIG    1       -3.908 -13.947 -16.168  0.00  0.00    -0.154 OA
ATOM     12  O   LIG    1       -3.900 -14.410 -18.210  0.00  0.00    -0.171 OA
ENDBRANCH   6  10
BRANCH   4  13
ATOM     13  O   LIG    1       -5.706  -9.147 -16.393  0.00  0.00    -0.477 OA
ATOM     14  H   LIG    1       -5.915  -8.296 -16.803  0.00  0.00    +0.387 HD
ENDBRANCH   4  13
BRANCH   5  15
ATOM     15  O   LIG    1       -5.502 -11.824 -15.795  0.00  0.00    -0.465 OA
ATOM     16  H   LIG    1       -5.131 -12.650 -15.456  0.00  0.00    +0.393 HD
ENDBRANCH   5  15
TORSDOF 4
ENDMDL
MODEL 9
REMARK VINA RESULT:      -5.5     10.438     12.379
REMARK  Name = CHEMBL170549
REMARK                            x       y       z     vdW  Elec       q    Type
REMARK                         _______ _______ _______ _____ _____    ______ ____
ROOT
ATOM      1  C   LIG    1       -3.249 -12.797 -19.493  0.00  0.00    +0.150 A 
ATOM      2  C   LIG    1       -3.415 -13.925 -18.683  0.00  0.00    -0.122 A 
ATOM      3  C   LIG    1       -3.981 -13.792 -17.410  0.00  0.00    +0.113 A 
ATOM      4  C   LIG    1       -4.373 -12.547 -16.961  0.00  0.00    +0.064 A 
ATOM      5  C   LIG    1       -4.204 -11.426 -17.773  0.00  0.00    +0.137 A 
ATOM      6  C   LIG    1       -3.643 -11.559 -19.037  0.00  0.00    -0.081 A 
ENDROOT
BRANCH   2   7
ATOM      7  C   LIG    1       -2.996 -15.251 -19.168  0.00  0.00    +0.524 C 
ATOM      8  O   LIG    1       -3.424 -15.676 -20.233  0.00  0.00    -0.672 OA
ATOM      9  O   LIG    1       -2.221 -15.928 -18.506  0.00  0.00    -0.669 OA
ENDBRANCH   2   7
BRANCH   6  10
ATOM     10  N   LIG    1       -3.466 -10.365 -19.895  0.00  0.00    +0.044 N 
ATOM     11  O   LIG    1       -3.982 -10.326 -20.988  0.00  0.00    -0.154 OA
ATOM     12  O   LIG    1       -2.807  -9.431 -19.503  0.00  0.00    -0.171 OA
ENDBRANCH   6  10
BRANCH   4  13
ATOM     13  O   LIG    1       -4.924 -12.413 -15.724  0.00  0.00    -0.477 OA
ATOM     14  H   LIG    1       -4.276 -12.297 -15.015  0.00  0.00    +0.387 HD
ENDBRANCH   4  13
BRANCH   5  15
ATOM     15  O   LIG    1       -4.591 -10.203 -17.329  0.00  0.00    -0.465 OA
ATOM     16  H   LIG    1       -5.487 -10.182 -16.966  0.00  0.00    +0.393 HD
ENDBRANCH   5  15
TORSDOF 4
ENDMDL
