MODEL 1
REMARK VINA RESULT:      -6.2      0.000      0.000
REMARK  Name = CHEMBL1091204
REMARK                            x       y       z     vdW  Elec       q    Type
REMARK                         _______ _______ _______ _____ _____    ______ ____
ROOT
ATOM      1  C   LIG    1       -2.879 -11.475 -21.317  0.00  0.00    -0.173 A 
ATOM      2  C   LIG    1       -2.893 -12.580 -20.520  0.00  0.00    +0.026 A 
ATOM      3 CL   LIG    1       -2.211 -14.072 -21.089  0.00  0.00    +0.004 Cl
ATOM      4  C   LIG    1       -3.461 -12.510 -19.235  0.00  0.00    -0.083 A 
ATOM      5  C   LIG    1       -3.569 -13.544 -18.267  0.00  0.00    +0.134 A 
ATOM      6  C   LIG    1       -4.153 -13.311 -17.062  0.00  0.00    +0.096 A 
ATOM      7  C   LIG    1       -4.666 -12.052 -16.730  0.00  0.00    +0.191 A 
ATOM      8  C   LIG    1       -4.578 -11.020 -17.649  0.00  0.00    -0.012 A 
ATOM      9  C   LIG    1       -3.989 -11.248 -18.872  0.00  0.00    -0.091 A 
ATOM     10  S   LIG    1       -3.668 -10.240 -20.299  0.00  0.00    +0.214 S 
ENDROOT
BRANCH   8  11
ATOM     11  N   LIG    1       -5.115  -9.681 -17.318  0.00  0.00    +0.023 N 
ATOM     12  O   LIG    1       -4.517  -8.688 -17.659  0.00  0.00    -0.110 OA
ATOM     13  O   LIG    1       -6.153  -9.581 -16.705  0.00  0.00    -0.125 OA
ENDBRANCH   8  11
BRANCH   1  14
ATOM     14  C   LIG    1       -2.342 -11.334 -22.672  0.00  0.00    +0.548 C 
ATOM     15  O   LIG    1       -2.973 -11.751 -23.624  0.00  0.00    -0.460 OA
BRANCH  14  16
ATOM     16  O   LIG    1       -1.146 -10.740 -22.865  0.00  0.00    -0.337 OA
BRANCH  16  18
ATOM     17  C   LIG    1        0.756 -12.105 -22.264  0.00  0.00    +0.037 C 
ATOM     18  C   LIG    1       -0.151 -10.942 -21.859  0.00  0.00    +0.171 C 
ATOM     19  C   LIG    1        0.687  -9.671 -21.707  0.00  0.00    +0.069 C 
ENDBRANCH  16  18
ENDBRANCH  14  16
ENDBRANCH   1  14
BRANCH   6  20
ATOM     20  O   LIG    1       -4.242 -14.324 -16.158  0.00  0.00    -0.469 OA
ATOM     21  H   LIG    1       -3.641 -14.233 -15.405  0.00  0.00    +0.401 HD
ENDBRANCH   6  20
BRANCH   7  22
ATOM     22  O   LIG    1       -5.245 -11.845 -15.518  0.00  0.00    -0.467 OA
ATOM     23  H   LIG    1       -5.565 -12.652 -15.093  0.00  0.00    +0.412 HD
ENDBRANCH   7  22
TORSDOF 6
ENDMDL
MODEL 2
REMARK VINA RESULT:      -5.9      1.275      2.298
REMARK  Name = CHEMBL1091204
REMARK                            x       y       z     vdW  Elec       q    Type
REMARK                         _______ _______ _______ _____ _____    ______ ____
ROOT
ATOM      1  C   LIG    1       -2.864 -11.200 -21.350  0.00  0.00    -0.173 A 
ATOM      2  C   LIG    1       -2.858 -12.348 -20.618  0.00  0.00    +0.026 A 
ATOM      3 CL   LIG    1       -2.150 -13.793 -21.271  0.00  0.00    +0.004 Cl
ATOM      4  C   LIG    1       -3.426 -12.362 -19.331  0.00  0.00    -0.083 A 
ATOM      5  C   LIG    1       -3.515 -13.451 -18.423  0.00  0.00    +0.134 A 
ATOM      6  C   LIG    1       -4.102 -13.297 -17.206  0.00  0.00    +0.096 A 
ATOM      7  C   LIG    1       -4.637 -12.068 -16.803  0.00  0.00    +0.191 A 
ATOM      8  C   LIG    1       -4.567 -10.985 -17.662  0.00  0.00    -0.012 A 
ATOM      9  C   LIG    1       -3.975 -11.132 -18.897  0.00  0.00    -0.091 A 
ATOM     10  S   LIG    1       -3.674 -10.039 -20.264  0.00  0.00    +0.214 S 
ENDROOT
BRANCH   8  11
ATOM     11  N   LIG    1       -5.128  -9.676 -17.256  0.00  0.00    +0.023 N 
ATOM     12  O   LIG    1       -6.176  -9.627 -16.655  0.00  0.00    -0.110 OA
ATOM     13  O   LIG    1       -4.538  -8.656 -17.525  0.00  0.00    -0.125 OA
ENDBRANCH   8  11
BRANCH   1  14
ATOM     14  C   LIG    1       -2.331 -10.973 -22.696  0.00  0.00    +0.548 C 
ATOM     15  O   LIG    1       -1.131 -10.994 -22.886  0.00  0.00    -0.460 OA
BRANCH  14  16
ATOM     16  O   LIG    1       -3.172 -10.742 -23.725  0.00  0.00    -0.337 OA
BRANCH  16  18
ATOM     17  C   LIG    1       -2.986  -8.338 -23.897  0.00  0.00    +0.037 C 
ATOM     18  C   LIG    1       -3.925  -9.528 -23.687  0.00  0.00    +0.171 C 
ATOM     19  C   LIG    1       -4.980  -9.546 -24.795  0.00  0.00    +0.069 C 
ENDBRANCH  16  18
ENDBRANCH  14  16
ENDBRANCH   1  14
BRANCH   6  20
ATOM     20  O   LIG    1       -4.171 -14.362 -16.361  0.00  0.00    -0.469 OA
ATOM     21  H   LIG    1       -4.165 -14.121 -15.424  0.00  0.00    +0.401 HD
ENDBRANCH   6  20
BRANCH   7  22
ATOM     22  O   LIG    1       -5.218 -11.941 -15.582  0.00  0.00    -0.467 OA
ATOM     23  H   LIG    1       -4.806 -11.272 -15.018  0.00  0.00    +0.412 HD
ENDBRANCH   7  22
TORSDOF 6
ENDMDL
MODEL 3
REMARK VINA RESULT:      -5.9      9.634     12.217
REMARK  Name = CHEMBL1091204
REMARK                            x       y       z     vdW  Elec       q    Type
REMARK                         _______ _______ _______ _____ _____    ______ ____
ROOT
ATOM      1  C   LIG    1        6.232  -7.321 -19.191  0.00  0.00    -0.173 A 
ATOM      2  C   LIG    1        6.851  -6.249 -19.757  0.00  0.00    +0.026 A 
ATOM      3 CL   LIG    1        7.256  -6.270 -21.446  0.00  0.00    +0.004 Cl
ATOM      4  C   LIG    1        7.164  -5.123 -18.972  0.00  0.00    -0.083 A 
ATOM      5  C   LIG    1        7.803  -3.921 -19.379  0.00  0.00    +0.134 A 
ATOM      6  C   LIG    1        8.034  -2.921 -18.488  0.00  0.00    +0.096 A 
ATOM      7  C   LIG    1        7.654  -3.036 -17.145  0.00  0.00    +0.191 A 
ATOM      8  C   LIG    1        7.028  -4.193 -16.715  0.00  0.00    -0.012 A 
ATOM      9  C   LIG    1        6.791  -5.211 -17.611  0.00  0.00    -0.091 A 
ATOM     10  S   LIG    1        6.033  -6.813 -17.492  0.00  0.00    +0.214 S 
ENDROOT
BRANCH   8  11
ATOM     11  N   LIG    1        6.619  -4.334 -15.299  0.00  0.00    +0.023 N 
ATOM     12  O   LIG    1        5.912  -3.498 -14.787  0.00  0.00    -0.110 OA
ATOM     13  O   LIG    1        6.992  -5.286 -14.654  0.00  0.00    -0.125 OA
ENDBRANCH   8  11
BRANCH   1  14
ATOM     14  C   LIG    1        5.822  -8.577 -19.822  0.00  0.00    +0.548 C 
ATOM     15  O   LIG    1        6.401  -9.611 -19.553  0.00  0.00    -0.460 OA
BRANCH  14  16
ATOM     16  O   LIG    1        4.799  -8.587 -20.703  0.00  0.00    -0.337 OA
BRANCH  16  18
ATOM     17  C   LIG    1        3.152  -6.851 -21.042  0.00  0.00    +0.037 C 
ATOM     18  C   LIG    1        3.540  -8.095 -20.240  0.00  0.00    +0.171 C 
ATOM     19  C   LIG    1        2.471  -9.174 -20.425  0.00  0.00    +0.069 C 
ENDBRANCH  16  18
ENDBRANCH  14  16
ENDBRANCH   1  14
BRANCH   6  20
ATOM     20  O   LIG    1        8.650  -1.783 -18.909  0.00  0.00    -0.469 OA
ATOM     21  H   LIG    1        8.159  -0.973 -18.710  0.00  0.00    +0.401 HD
ENDBRANCH   6  20
BRANCH   7  22
ATOM     22  O   LIG    1        7.897  -2.021 -16.275  0.00  0.00    -0.467 OA
ATOM     23  H   LIG    1        7.970  -1.152 -16.694  0.00  0.00    +0.412 HD
ENDBRANCH   7  22
TORSDOF 6
ENDMDL
MODEL 4
REMARK VINA RESULT:      -5.7      3.211      4.336
REMARK  Name = CHEMBL1091204
REMARK                            x       y       z     vdW  Elec       q    Type
REMARK                         _______ _______ _______ _____ _____    ______ ____
ROOT
ATOM      1  C   LIG    1       -2.586 -14.959 -20.981  0.00  0.00    -0.173 A 
ATOM      2  C   LIG    1       -3.057 -15.069 -19.708  0.00  0.00    +0.026 A 
ATOM      3 CL   LIG    1       -3.193 -16.632 -18.963  0.00  0.00    +0.004 Cl
ATOM      4  C   LIG    1       -3.433 -13.914 -18.997  0.00  0.00    -0.083 A 
ATOM      5  C   LIG    1       -3.942 -13.827 -17.674  0.00  0.00    +0.134 A 
ATOM      6  C   LIG    1       -4.261 -12.623 -17.129  0.00  0.00    +0.096 A 
ATOM      7  C   LIG    1       -4.101 -11.431 -17.846  0.00  0.00    +0.191 A 
ATOM      8  C   LIG    1       -3.607 -11.479 -19.138  0.00  0.00    -0.012 A 
ATOM      9  C   LIG    1       -3.282 -12.695 -19.698  0.00  0.00    -0.091 A 
ATOM     10  S   LIG    1       -2.631 -13.199 -21.272  0.00  0.00    +0.214 S 
ENDROOT
BRANCH   8  11
ATOM     11  N   LIG    1       -3.432 -10.230 -19.914  0.00  0.00    +0.023 N 
ATOM     12  O   LIG    1       -3.994 -10.093 -20.976  0.00  0.00    -0.110 OA
ATOM     13  O   LIG    1       -2.725  -9.347 -19.487  0.00  0.00    -0.125 OA
ENDBRANCH   8  11
BRANCH   1  14
ATOM     14  C   LIG    1       -2.143 -16.022 -21.886  0.00  0.00    +0.548 C 
ATOM     15  O   LIG    1       -0.993 -16.415 -21.849  0.00  0.00    -0.460 OA
BRANCH  14  16
ATOM     16  O   LIG    1       -3.013 -16.569 -22.761  0.00  0.00    -0.337 OA
BRANCH  16  18
ATOM     17  C   LIG    1       -5.185 -16.071 -23.697  0.00  0.00    +0.037 C 
ATOM     18  C   LIG    1       -4.403 -16.468 -22.443  0.00  0.00    +0.171 C 
ATOM     19  C   LIG    1       -4.909 -17.818 -21.933  0.00  0.00    +0.069 C 
ENDBRANCH  16  18
ENDBRANCH  14  16
ENDBRANCH   1  14
BRANCH   6  20
ATOM     20  O   LIG    1       -4.748 -12.574 -15.860  0.00  0.00    -0.469 OA
ATOM     21  H   LIG    1       -4.601 -11.728 -15.414  0.00  0.00    +0.401 HD
ENDBRANCH   6  20
BRANCH   7  22
ATOM     22  O   LIG    1       -4.428 -10.241 -17.279  0.00  0.00    -0.467 OA
ATOM     23  H   LIG    1       -5.233  -9.842 -17.637  0.00  0.00    +0.412 HD
ENDBRANCH   7  22
TORSDOF 6
ENDMDL
MODEL 5
REMARK VINA RESULT:      -5.6      9.927     12.402
REMARK  Name = CHEMBL1091204
REMARK                            x       y       z     vdW  Elec       q    Type
REMARK                         _______ _______ _______ _____ _____    ______ ____
ROOT
ATOM      1  C   LIG    1        6.056  -7.336 -19.138  0.00  0.00    -0.173 A 
ATOM      2  C   LIG    1        6.710  -6.303 -19.739  0.00  0.00    +0.026 A 
ATOM      3 CL   LIG    1        7.096  -6.384 -21.431  0.00  0.00    +0.004 Cl
ATOM      4  C   LIG    1        7.072  -5.170 -18.988  0.00  0.00    -0.083 A 
ATOM      5  C   LIG    1        7.752  -4.004 -19.432  0.00  0.00    +0.134 A 
ATOM      6  C   LIG    1        8.030  -2.990 -18.570  0.00  0.00    +0.096 A 
ATOM      7  C   LIG    1        7.660  -3.055 -17.221  0.00  0.00    +0.191 A 
ATOM      8  C   LIG    1        6.996  -4.176 -16.754  0.00  0.00    -0.012 A 
ATOM      9  C   LIG    1        6.711  -5.208 -17.620  0.00  0.00    -0.091 A 
ATOM     10  S   LIG    1        5.895  -6.777 -17.452  0.00  0.00    +0.214 S 
ENDROOT
BRANCH   8  11
ATOM     11  N   LIG    1        6.597  -4.265 -15.332  0.00  0.00    +0.023 N 
ATOM     12  O   LIG    1        5.898  -3.407 -14.844  0.00  0.00    -0.110 OA
ATOM     13  O   LIG    1        6.970  -5.196 -14.656  0.00  0.00    -0.125 OA
ENDBRANCH   8  11
BRANCH   1  14
ATOM     14  C   LIG    1        5.593  -8.592 -19.733  0.00  0.00    +0.548 C 
ATOM     15  O   LIG    1        4.407  -8.770 -19.932  0.00  0.00    -0.460 OA
BRANCH  14  16
ATOM     16  O   LIG    1        6.483  -9.552 -20.060  0.00  0.00    -0.337 OA
BRANCH  16  18
ATOM     17  C   LIG    1        7.095 -11.157 -18.360  0.00  0.00    +0.037 C 
ATOM     18  C   LIG    1        7.483  -9.869 -19.089  0.00  0.00    +0.171 C 
ATOM     19  C   LIG    1        8.830 -10.065 -19.788  0.00  0.00    +0.069 C 
ENDBRANCH  16  18
ENDBRANCH  14  16
ENDBRANCH   1  14
BRANCH   6  20
ATOM     20  O   LIG    1        8.683  -1.888 -19.027  0.00  0.00    -0.469 OA
ATOM     21  H   LIG    1        8.251  -1.052 -18.801  0.00  0.00    +0.401 HD
ENDBRANCH   6  20
BRANCH   7  22
ATOM     22  O   LIG    1        7.950  -2.028 -16.381  0.00  0.00    -0.467 OA
ATOM     23  H   LIG    1        8.534  -2.271 -15.649  0.00  0.00    +0.412 HD
ENDBRANCH   7  22
TORSDOF 6
ENDMDL
MODEL 6
REMARK VINA RESULT:      -5.4      2.991      3.607
REMARK  Name = CHEMBL1091204
REMARK                            x       y       z     vdW  Elec       q    Type
REMARK                         _______ _______ _______ _____ _____    ______ ____
ROOT
ATOM      1  C   LIG    1       -2.507 -14.890 -21.072  0.00  0.00    -0.173 A 
ATOM      2  C   LIG    1       -2.992 -15.035 -19.807  0.00  0.00    +0.026 A 
ATOM      3 CL   LIG    1       -3.128 -16.617 -19.103  0.00  0.00    +0.004 Cl
ATOM      4  C   LIG    1       -3.383 -13.901 -19.072  0.00  0.00    -0.083 A 
ATOM      5  C   LIG    1       -3.908 -13.850 -17.753  0.00  0.00    +0.134 A 
ATOM      6  C   LIG    1       -4.241 -12.662 -17.182  0.00  0.00    +0.096 A 
ATOM      7  C   LIG    1       -4.080 -11.452 -17.867  0.00  0.00    +0.191 A 
ATOM      8  C   LIG    1       -3.571 -11.464 -19.154  0.00  0.00    -0.012 A 
ATOM      9  C   LIG    1       -3.232 -12.663 -19.740  0.00  0.00    -0.091 A 
ATOM     10  S   LIG    1       -2.560 -13.124 -21.318  0.00  0.00    +0.214 S 
ENDROOT
BRANCH   8  11
ATOM     11  N   LIG    1       -3.394 -10.195 -19.896  0.00  0.00    +0.023 N 
ATOM     12  O   LIG    1       -2.657  -9.339 -19.463  0.00  0.00    -0.110 OA
ATOM     13  O   LIG    1       -3.986 -10.014 -20.934  0.00  0.00    -0.125 OA
ENDBRANCH   8  11
BRANCH   1  14
ATOM     14  C   LIG    1       -2.048 -15.928 -21.998  0.00  0.00    +0.548 C 
ATOM     15  O   LIG    1       -2.661 -16.142 -23.026  0.00  0.00    -0.460 OA
BRANCH  14  16
ATOM     16  O   LIG    1       -0.943 -16.647 -21.711  0.00  0.00    -0.337 OA
BRANCH  16  18
ATOM     17  C   LIG    1        0.890 -15.816 -20.373  0.00  0.00    +0.037 C 
ATOM     18  C   LIG    1        0.311 -15.966 -21.781  0.00  0.00    +0.171 C 
ATOM     19  C   LIG    1        1.282 -16.770 -22.648  0.00  0.00    +0.069 C 
ENDBRANCH  16  18
ENDBRANCH  14  16
ENDBRANCH   1  14
BRANCH   6  20
ATOM     20  O   LIG    1       -4.742 -12.648 -15.917  0.00  0.00    -0.469 OA
ATOM     21  H   LIG    1       -4.125 -12.309 -15.253  0.00  0.00    +0.401 HD
ENDBRANCH   6  20
BRANCH   7  22
ATOM     22  O   LIG    1       -4.420 -10.278 -17.273  0.00  0.00    -0.467 OA
ATOM     23  H   LIG    1       -5.340 -10.017 -17.416  0.00  0.00    +0.412 HD
ENDBRANCH   7  22
TORSDOF 6
ENDMDL
MODEL 7
REMARK VINA RESULT:      -5.2      2.631      3.637
REMARK  Name = CHEMBL1091204
REMARK                            x       y       z     vdW  Elec       q    Type
REMARK                         _______ _______ _______ _____ _____    ______ ____
ROOT
ATOM      1  C   LIG    1       -2.446 -10.261 -20.835  0.00  0.00    -0.173 A 
ATOM      2  C   LIG    1       -2.973 -10.101 -19.590  0.00  0.00    +0.026 A 
ATOM      3 CL   LIG    1       -3.160  -8.509 -18.922  0.00  0.00    +0.004 Cl
ATOM      4  C   LIG    1       -3.367 -11.228 -18.845  0.00  0.00    -0.083 A 
ATOM      5  C   LIG    1       -3.931 -11.263 -17.541  0.00  0.00    +0.134 A 
ATOM      6  C   LIG    1       -4.258 -12.446 -16.957  0.00  0.00    +0.096 A 
ATOM      7  C   LIG    1       -4.052 -13.666 -17.612  0.00  0.00    +0.191 A 
ATOM      8  C   LIG    1       -3.505 -13.669 -18.883  0.00  0.00    -0.012 A 
ATOM      9  C   LIG    1       -3.170 -12.475 -19.483  0.00  0.00    -0.091 A 
ATOM     10  S   LIG    1       -2.473 -12.031 -21.054  0.00  0.00    +0.214 S 
ENDROOT
BRANCH   8  11
ATOM     11  N   LIG    1       -3.278 -14.948 -19.593  0.00  0.00    +0.023 N 
ATOM     12  O   LIG    1       -3.794 -15.143 -20.669  0.00  0.00    -0.110 OA
ATOM     13  O   LIG    1       -2.579 -15.800 -19.095  0.00  0.00    -0.125 OA
ENDBRANCH   8  11
BRANCH   1  14
ATOM     14  C   LIG    1       -1.979  -9.232 -21.768  0.00  0.00    +0.548 C 
ATOM     15  O   LIG    1       -2.596  -9.014 -22.792  0.00  0.00    -0.460 OA
BRANCH  14  16
ATOM     16  O   LIG    1       -0.864  -8.525 -21.489  0.00  0.00    -0.337 OA
BRANCH  16  18
ATOM     17  C   LIG    1        1.148  -8.112 -22.763  0.00  0.00    +0.037 C 
ATOM     18  C   LIG    1        0.384  -9.101 -21.880  0.00  0.00    +0.171 C 
ATOM     19  C   LIG    1        1.214  -9.418 -20.634  0.00  0.00    +0.069 C 
ENDBRANCH  16  18
ENDBRANCH  14  16
ENDBRANCH   1  14
BRANCH   6  20
ATOM     20  O   LIG    1       -4.795 -12.445 -15.707  0.00  0.00    -0.469 OA
ATOM     21  H   LIG    1       -4.924 -11.561 -15.335  0.00  0.00    +0.401 HD
ENDBRANCH   6  20
BRANCH   7  22
ATOM     22  O   LIG    1       -4.387 -14.835 -17.005  0.00  0.00    -0.467 OA
ATOM     23  H   LIG    1       -4.911 -14.724 -16.200  0.00  0.00    +0.412 HD
ENDBRANCH   7  22
TORSDOF 6
ENDMDL
MODEL 8
REMARK VINA RESULT:      -5.2      3.000      4.140
REMARK  Name = CHEMBL1091204
REMARK                            x       y       z     vdW  Elec       q    Type
REMARK                         _______ _______ _______ _____ _____    ______ ____
ROOT
ATOM      1  C   LIG    1       -1.166 -10.177 -21.912  0.00  0.00    -0.173 A 
ATOM      2  C   LIG    1       -1.600  -9.765 -20.689  0.00  0.00    +0.026 A 
ATOM      3 CL   LIG    1       -1.179  -8.185 -20.103  0.00  0.00    +0.004 Cl
ATOM      4  C   LIG    1       -2.389 -10.621 -19.899  0.00  0.00    -0.083 A 
ATOM      5  C   LIG    1       -2.931 -10.373 -18.609  0.00  0.00    +0.134 A 
ATOM      6  C   LIG    1       -3.679 -11.315 -17.976  0.00  0.00    +0.096 A 
ATOM      7  C   LIG    1       -3.943 -12.557 -18.566  0.00  0.00    +0.191 A 
ATOM      8  C   LIG    1       -3.432 -12.832 -19.822  0.00  0.00    -0.012 A 
ATOM      9  C   LIG    1       -2.672 -11.884 -20.471  0.00  0.00    -0.091 A 
ATOM     10  S   LIG    1       -1.854 -11.818 -22.046  0.00  0.00    +0.214 S 
ENDROOT
BRANCH   8  11
ATOM     11  N   LIG    1       -3.698 -14.140 -20.463  0.00  0.00    +0.023 N 
ATOM     12  O   LIG    1       -3.237 -15.152 -19.989  0.00  0.00    -0.110 OA
ATOM     13  O   LIG    1       -4.377 -14.196 -21.463  0.00  0.00    -0.125 OA
ENDBRANCH   8  11
BRANCH   1  14
ATOM     14  C   LIG    1       -0.345  -9.449 -22.882  0.00  0.00    +0.548 C 
ATOM     15  O   LIG    1        0.861  -9.394 -22.739  0.00  0.00    -0.460 OA
BRANCH  14  16
ATOM     16  O   LIG    1       -0.927  -8.841 -23.936  0.00  0.00    -0.337 OA
BRANCH  16  18
ATOM     17  C   LIG    1       -1.163  -6.437 -24.020  0.00  0.00    +0.037 C 
ATOM     18  C   LIG    1       -1.824  -7.766 -23.651  0.00  0.00    +0.171 C 
ATOM     19  C   LIG    1       -3.106  -7.941 -24.468  0.00  0.00    +0.069 C 
ENDBRANCH  16  18
ENDBRANCH  14  16
ENDBRANCH   1  14
BRANCH   6  20
ATOM     20  O   LIG    1       -4.181 -11.046 -16.740  0.00  0.00    -0.469 OA
ATOM     21  H   LIG    1       -4.014 -10.143 -16.436  0.00  0.00    +0.401 HD
ENDBRANCH   6  20
BRANCH   7  22
ATOM     22  O   LIG    1       -4.693 -13.481 -17.911  0.00  0.00    -0.467 OA
ATOM     23  H   LIG    1       -5.161 -13.133 -17.140  0.00  0.00    +0.412 HD
ENDBRANCH   7  22
TORSDOF 6
ENDMDL
MODEL 9
REMARK VINA RESULT:      -4.9      3.565      7.067
REMARK  Name = CHEMBL1091204
REMARK                            x       y       z     vdW  Elec       q    Type
REMARK                         _______ _______ _______ _____ _____    ______ ____
ROOT
ATOM      1  C   LIG    1       -1.593 -10.074 -20.479  0.00  0.00    -0.173 A 
ATOM      2  C   LIG    1       -0.776 -10.782 -21.307  0.00  0.00    +0.026 A 
ATOM      3 CL   LIG    1       -1.274 -12.336 -21.900  0.00  0.00    +0.004 Cl
ATOM      4  C   LIG    1        0.473 -10.252 -21.681  0.00  0.00    -0.083 A 
ATOM      5  C   LIG    1        1.454 -10.835 -22.527  0.00  0.00    +0.134 A 
ATOM      6  C   LIG    1        2.620 -10.186 -22.790  0.00  0.00    +0.096 A 
ATOM      7  C   LIG    1        2.896  -8.928 -22.241  0.00  0.00    +0.191 A 
ATOM      8  C   LIG    1        1.962  -8.330 -21.413  0.00  0.00    -0.012 A 
ATOM      9  C   LIG    1        0.778  -8.980 -21.141  0.00  0.00    -0.091 A 
ATOM     10  S   LIG    1       -0.655  -8.588 -20.169  0.00  0.00    +0.214 S 
ENDROOT
BRANCH   8  11
ATOM     11  N   LIG    1        2.234  -7.001 -20.822  0.00  0.00    +0.023 N 
ATOM     12  O   LIG    1        3.265  -6.806 -20.220  0.00  0.00    -0.110 OA
ATOM     13  O   LIG    1        1.426  -6.109 -20.941  0.00  0.00    -0.125 OA
ENDBRANCH   8  11
BRANCH   1  14
ATOM     14  C   LIG    1       -2.919 -10.439 -19.974  0.00  0.00    +0.548 C 
ATOM     15  O   LIG    1       -3.903 -10.264 -20.666  0.00  0.00    -0.460 OA
BRANCH  14  16
ATOM     16  O   LIG    1       -3.048 -10.971 -18.741  0.00  0.00    -0.337 OA
BRANCH  16  18
ATOM     17  C   LIG    1       -3.534 -13.313 -19.085  0.00  0.00    +0.037 C 
ATOM     18  C   LIG    1       -4.054 -11.971 -18.567  0.00  0.00    +0.171 C 
ATOM     19  C   LIG    1       -4.399 -12.096 -17.082  0.00  0.00    +0.069 C 
ENDBRANCH  16  18
ENDBRANCH  14  16
ENDBRANCH   1  14
BRANCH   6  20
ATOM     20  O   LIG    1        3.539 -10.773 -23.603  0.00  0.00    -0.469 OA
ATOM     21  H   LIG    1        3.611 -10.362 -24.476  0.00  0.00    +0.401 HD
ENDBRANCH   6  20
BRANCH   7  22
ATOM     22  O   LIG    1        4.069  -8.301 -22.520  0.00  0.00    -0.467 OA
ATOM     23  H   LIG    1        4.013  -7.668 -23.248  0.00  0.00    +0.412 HD
ENDBRANCH   7  22
TORSDOF 6
ENDMDL
