MODEL 1
REMARK VINA RESULT:      -6.4      0.000      0.000
REMARK  Name = CHEMBL169465
REMARK                            x       y       z     vdW  Elec       q    Type
REMARK                         _______ _______ _______ _____ _____    ______ ____
ROOT
ATOM      1  C   LIG    1       -5.272  -1.542 -19.758  0.00  0.00    +0.141 A 
ATOM      2  C   LIG    1       -6.451  -1.674 -19.021  0.00  0.00    -0.185 A 
ATOM      3  C   LIG    1       -6.953  -0.582 -18.301  0.00  0.00    +0.109 A 
ATOM      4  C   LIG    1       -6.285   0.626 -18.318  0.00  0.00    +0.072 A 
ATOM      5  C   LIG    1       -5.109   0.766 -19.052  0.00  0.00    +0.163 A 
ATOM      6  C   LIG    1       -4.599  -0.324 -19.775  0.00  0.00    -0.051 A 
ENDROOT
BRANCH   2   7
ATOM      7  C   LIG    1       -7.165  -2.958 -19.001  0.00  0.00    +0.502 C 
ATOM      8  O   LIG    1       -6.580  -3.981 -19.288  0.00  0.00    -0.449 OA
ENDBRANCH   2   7
BRANCH   4   9
ATOM      9  O   LIG    1       -6.778   1.683 -17.619  0.00  0.00    -0.478 OA
ATOM     10  H   LIG    1       -6.991   2.452 -18.166  0.00  0.00    +0.395 HD
ENDBRANCH   4   9
BRANCH   5  11
ATOM     11  O   LIG    1       -4.456   1.954 -19.066  0.00  0.00    -0.478 OA
ATOM     12  H   LIG    1       -4.730   2.561 -18.366  0.00  0.00    +0.402 HD
ENDBRANCH   5  11
BRANCH   6  13
ATOM     13  C   LIG    1       -3.389  -0.182 -20.529  0.00  0.00    +0.251 C 
ATOM     14  N   LIG    1       -2.431  -0.068 -21.126  0.00  0.00    -0.394 NA
ENDBRANCH   6  13
TORSDOF 4
ENDMDL
MODEL 2
REMARK VINA RESULT:      -6.1      2.364      3.890
REMARK  Name = CHEMBL169465
REMARK                            x       y       z     vdW  Elec       q    Type
REMARK                         _______ _______ _______ _____ _____    ______ ____
ROOT
ATOM      1  C   LIG    1       -5.218  -1.365 -19.697  0.00  0.00    +0.141 A 
ATOM      2  C   LIG    1       -4.583  -0.121 -19.673  0.00  0.00    -0.185 A 
ATOM      3  C   LIG    1       -5.155   0.944 -18.962  0.00  0.00    +0.109 A 
ATOM      4  C   LIG    1       -6.345   0.765 -18.285  0.00  0.00    +0.072 A 
ATOM      5  C   LIG    1       -6.984  -0.473 -18.304  0.00  0.00    +0.163 A 
ATOM      6  C   LIG    1       -6.417  -1.544 -19.014  0.00  0.00    -0.051 A 
ENDROOT
BRANCH   2   7
ATOM      7  C   LIG    1       -3.317   0.073 -20.392  0.00  0.00    +0.502 C 
ATOM      8  O   LIG    1       -2.907   1.194 -20.607  0.00  0.00    -0.449 OA
ENDBRANCH   2   7
BRANCH   4   9
ATOM      9  O   LIG    1       -6.895   1.801 -17.595  0.00  0.00    -0.478 OA
ATOM     10  H   LIG    1       -7.102   2.571 -18.142  0.00  0.00    +0.395 HD
ENDBRANCH   4   9
BRANCH   5  11
ATOM     11  O   LIG    1       -8.151  -0.644 -17.638  0.00  0.00    -0.478 OA
ATOM     12  H   LIG    1       -8.661  -1.412 -17.929  0.00  0.00    +0.402 HD
ENDBRANCH   5  11
BRANCH   6  13
ATOM     13  C   LIG    1       -7.073  -2.817 -19.036  0.00  0.00    +0.251 C 
ATOM     14  N   LIG    1       -7.593  -3.826 -19.052  0.00  0.00    -0.394 NA
ENDBRANCH   6  13
TORSDOF 4
ENDMDL
MODEL 3
REMARK VINA RESULT:      -6.1      2.172      3.131
REMARK  Name = CHEMBL169465
REMARK                            x       y       z     vdW  Elec       q    Type
REMARK                         _______ _______ _______ _____ _____    ______ ____
ROOT
ATOM      1  C   LIG    1       -6.509  -1.064 -18.775  0.00  0.00    +0.141 A 
ATOM      2  C   LIG    1       -5.891  -1.915 -19.693  0.00  0.00    -0.185 A 
ATOM      3  C   LIG    1       -4.729  -1.502 -20.360  0.00  0.00    +0.109 A 
ATOM      4  C   LIG    1       -4.194  -0.255 -20.110  0.00  0.00    +0.072 A 
ATOM      5  C   LIG    1       -4.804   0.601 -19.195  0.00  0.00    +0.163 A 
ATOM      6  C   LIG    1       -5.969   0.194 -18.524  0.00  0.00    -0.051 A 
ENDROOT
BRANCH   2   7
ATOM      7  C   LIG    1       -6.457  -3.244 -19.961  0.00  0.00    +0.502 C 
ATOM      8  O   LIG    1       -6.182  -4.178 -19.238  0.00  0.00    -0.449 OA
ENDBRANCH   2   7
BRANCH   4   9
ATOM      9  O   LIG    1       -3.065   0.142 -20.759  0.00  0.00    -0.478 OA
ATOM     10  H   LIG    1       -2.395   0.531 -20.180  0.00  0.00    +0.395 HD
ENDBRANCH   4   9
BRANCH   5  11
ATOM     11  O   LIG    1       -4.275   1.824 -18.953  0.00  0.00    -0.478 OA
ATOM     12  H   LIG    1       -4.934   2.505 -18.758  0.00  0.00    +0.402 HD
ENDBRANCH   5  11
BRANCH   6  13
ATOM     13  C   LIG    1       -6.598   1.071 -17.584  0.00  0.00    +0.251 C 
ATOM     14  N   LIG    1       -7.098   1.766 -16.838  0.00  0.00    -0.394 NA
ENDBRANCH   6  13
TORSDOF 4
ENDMDL
MODEL 4
REMARK VINA RESULT:      -5.8      1.652      3.383
REMARK  Name = CHEMBL169465
REMARK                            x       y       z     vdW  Elec       q    Type
REMARK                         _______ _______ _______ _____ _____    ______ ____
ROOT
ATOM      1  C   LIG    1       -5.395   0.235 -18.434  0.00  0.00    +0.141 A 
ATOM      2  C   LIG    1       -6.576   0.121 -17.697  0.00  0.00    -0.185 A 
ATOM      3  C   LIG    1       -7.463  -0.932 -17.954  0.00  0.00    +0.109 A 
ATOM      4  C   LIG    1       -7.173  -1.860 -18.934  0.00  0.00    +0.072 A 
ATOM      5  C   LIG    1       -5.997  -1.755 -19.673  0.00  0.00    +0.163 A 
ATOM      6  C   LIG    1       -5.103  -0.701 -19.422  0.00  0.00    -0.051 A 
ENDROOT
BRANCH   2   7
ATOM      7  C   LIG    1       -6.888   1.107 -16.653  0.00  0.00    +0.502 C 
ATOM      8  O   LIG    1       -6.571   0.891 -15.502  0.00  0.00    -0.449 OA
ENDBRANCH   2   7
BRANCH   4   9
ATOM      9  O   LIG    1       -8.038  -2.882 -19.178  0.00  0.00    -0.478 OA
ATOM     10  H   LIG    1       -7.841  -3.690 -18.684  0.00  0.00    +0.395 HD
ENDBRANCH   4   9
BRANCH   5  11
ATOM     11  O   LIG    1       -5.716  -2.668 -20.634  0.00  0.00    -0.478 OA
ATOM     12  H   LIG    1       -5.960  -2.387 -21.526  0.00  0.00    +0.402 HD
ENDBRANCH   5  11
BRANCH   6  13
ATOM     13  C   LIG    1       -3.894  -0.591 -20.182  0.00  0.00    +0.251 C 
ATOM     14  N   LIG    1       -2.934  -0.504 -20.783  0.00  0.00    -0.394 NA
ENDBRANCH   6  13
TORSDOF 4
ENDMDL
MODEL 5
REMARK VINA RESULT:      -5.4      3.913      6.032
REMARK  Name = CHEMBL169465
REMARK                            x       y       z     vdW  Elec       q    Type
REMARK                         _______ _______ _______ _____ _____    ______ ____
ROOT
ATOM      1  C   LIG    1       -7.446  -3.469 -21.230  0.00  0.00    +0.141 A 
ATOM      2  C   LIG    1       -6.868  -3.309 -19.969  0.00  0.00    -0.185 A 
ATOM      3  C   LIG    1       -7.449  -3.919 -18.849  0.00  0.00    +0.109 A 
ATOM      4  C   LIG    1       -8.593  -4.679 -18.989  0.00  0.00    +0.072 A 
ATOM      5  C   LIG    1       -9.176  -4.844 -20.244  0.00  0.00    +0.163 A 
ATOM      6  C   LIG    1       -8.600  -4.235 -21.370  0.00  0.00    -0.051 A 
ENDROOT
BRANCH   2   7
ATOM      7  C   LIG    1       -5.650  -2.502 -19.815  0.00  0.00    +0.502 C 
ATOM      8  O   LIG    1       -5.185  -1.919 -20.772  0.00  0.00    -0.449 OA
ENDBRANCH   2   7
BRANCH   4   9
ATOM      9  O   LIG    1       -9.153  -5.271 -17.899  0.00  0.00    -0.478 OA
ATOM     10  H   LIG    1       -9.048  -4.765 -17.081  0.00  0.00    +0.395 HD
ENDBRANCH   4   9
BRANCH   5  11
ATOM     11  O   LIG    1      -10.299  -5.591 -20.378  0.00  0.00    -0.478 OA
ATOM     12  H   LIG    1      -10.323  -6.123 -21.184  0.00  0.00    +0.402 HD
ENDBRANCH   5  11
BRANCH   6  13
ATOM     13  C   LIG    1       -9.198  -4.402 -22.661  0.00  0.00    +0.251 C 
ATOM     14  N   LIG    1       -9.671  -4.534 -23.684  0.00  0.00    -0.394 NA
ENDBRANCH   6  13
TORSDOF 4
ENDMDL
MODEL 6
REMARK VINA RESULT:      -5.4      2.505      4.256
REMARK  Name = CHEMBL169465
REMARK                            x       y       z     vdW  Elec       q    Type
REMARK                         _______ _______ _______ _____ _____    ______ ____
ROOT
ATOM      1  C   LIG    1       -7.239  -0.945 -17.894  0.00  0.00    +0.141 A 
ATOM      2  C   LIG    1       -6.521   0.240 -17.717  0.00  0.00    -0.185 A 
ATOM      3  C   LIG    1       -5.433   0.531 -18.552  0.00  0.00    +0.109 A 
ATOM      4  C   LIG    1       -5.071  -0.350 -19.550  0.00  0.00    +0.072 A 
ATOM      5  C   LIG    1       -5.783  -1.533 -19.734  0.00  0.00    +0.163 A 
ATOM      6  C   LIG    1       -6.873  -1.833 -18.902  0.00  0.00    -0.051 A 
ENDROOT
BRANCH   2   7
ATOM      7  C   LIG    1       -6.904   1.180 -16.655  0.00  0.00    +0.502 C 
ATOM      8  O   LIG    1       -6.629   0.935 -15.500  0.00  0.00    -0.449 OA
ENDBRANCH   2   7
BRANCH   4   9
ATOM      9  O   LIG    1       -4.015  -0.062 -20.359  0.00  0.00    -0.478 OA
ATOM     10  H   LIG    1       -4.267   0.276 -21.230  0.00  0.00    +0.395 HD
ENDBRANCH   4   9
BRANCH   5  11
ATOM     11  O   LIG    1       -5.424  -2.396 -20.716  0.00  0.00    -0.478 OA
ATOM     12  H   LIG    1       -4.993  -1.973 -21.472  0.00  0.00    +0.402 HD
ENDBRANCH   5  11
BRANCH   6  13
ATOM     13  C   LIG    1       -7.606  -3.049 -19.089  0.00  0.00    +0.251 C 
ATOM     14  N   LIG    1       -8.187  -4.013 -19.236  0.00  0.00    -0.394 NA
ENDBRANCH   6  13
TORSDOF 4
ENDMDL
MODEL 7
REMARK VINA RESULT:      -5.3      9.871     11.328
REMARK  Name = CHEMBL169465
REMARK                            x       y       z     vdW  Elec       q    Type
REMARK                         _______ _______ _______ _____ _____    ______ ____
ROOT
ATOM      1  C   LIG    1       -3.461 -11.645 -18.694  0.00  0.00    +0.141 A 
ATOM      2  C   LIG    1       -3.546 -10.289 -19.017  0.00  0.00    -0.185 A 
ATOM      3  C   LIG    1       -4.312  -9.426 -18.221  0.00  0.00    +0.109 A 
ATOM      4  C   LIG    1       -4.982  -9.912 -17.117  0.00  0.00    +0.072 A 
ATOM      5  C   LIG    1       -4.901 -11.264 -16.787  0.00  0.00    +0.163 A 
ATOM      6  C   LIG    1       -4.137 -12.135 -17.580  0.00  0.00    -0.051 A 
ENDROOT
BRANCH   2   7
ATOM      7  C   LIG    1       -2.834  -9.767 -20.191  0.00  0.00    +0.502 C 
ATOM      8  O   LIG    1       -1.756  -9.227 -20.057  0.00  0.00    -0.449 OA
ENDBRANCH   2   7
BRANCH   4   9
ATOM      9  O   LIG    1       -5.722  -9.069 -16.347  0.00  0.00    -0.478 OA
ATOM     10  H   LIG    1       -6.677  -9.177 -16.454  0.00  0.00    +0.395 HD
ENDBRANCH   4   9
BRANCH   5  11
ATOM     11  O   LIG    1       -5.560 -11.737 -15.702  0.00  0.00    -0.478 OA
ATOM     12  H   LIG    1       -5.328 -11.292 -14.876  0.00  0.00    +0.402 HD
ENDBRANCH   5  11
BRANCH   6  13
ATOM     13  C   LIG    1       -4.054 -13.524 -17.243  0.00  0.00    +0.251 C 
ATOM     14  N   LIG    1       -3.988 -14.625 -16.975  0.00  0.00    -0.394 NA
ENDBRANCH   6  13
TORSDOF 4
ENDMDL
MODEL 8
REMARK VINA RESULT:      -5.3      3.910      6.240
REMARK  Name = CHEMBL169465
REMARK                            x       y       z     vdW  Elec       q    Type
REMARK                         _______ _______ _______ _____ _____    ______ ____
ROOT
ATOM      1  C   LIG    1       -6.902  -4.129 -18.857  0.00  0.00    +0.141 A 
ATOM      2  C   LIG    1       -6.579  -3.298 -19.932  0.00  0.00    -0.185 A 
ATOM      3  C   LIG    1       -7.403  -3.265 -21.065  0.00  0.00    +0.109 A 
ATOM      4  C   LIG    1       -8.536  -4.052 -21.121  0.00  0.00    +0.072 A 
ATOM      5  C   LIG    1       -8.866  -4.883 -20.052  0.00  0.00    +0.163 A 
ATOM      6  C   LIG    1       -8.044  -4.922 -18.914  0.00  0.00    -0.051 A 
ENDROOT
BRANCH   2   7
ATOM      7  C   LIG    1       -5.375  -2.458 -19.875  0.00  0.00    +0.502 C 
ATOM      8  O   LIG    1       -5.467  -1.285 -19.581  0.00  0.00    -0.449 OA
ENDBRANCH   2   7
BRANCH   4   9
ATOM      9  O   LIG    1       -9.334  -4.015 -22.222  0.00  0.00    -0.478 OA
ATOM     10  H   LIG    1       -9.684  -4.878 -22.483  0.00  0.00    +0.395 HD
ENDBRANCH   4   9
BRANCH   5  11
ATOM     11  O   LIG    1       -9.979  -5.654 -20.111  0.00  0.00    -0.478 OA
ATOM     12  H   LIG    1      -10.803  -5.152 -20.155  0.00  0.00    +0.402 HD
ENDBRANCH   5  11
BRANCH   6  13
ATOM     13  C   LIG    1       -8.381  -5.776 -17.815  0.00  0.00    +0.251 C 
ATOM     14  N   LIG    1       -8.648  -6.455 -16.945  0.00  0.00    -0.394 NA
ENDBRANCH   6  13
TORSDOF 4
ENDMDL
MODEL 9
REMARK VINA RESULT:      -5.2     10.287     12.118
REMARK  Name = CHEMBL169465
REMARK                            x       y       z     vdW  Elec       q    Type
REMARK                         _______ _______ _______ _____ _____    ______ ____
ROOT
ATOM      1  C   LIG    1       -3.952 -11.208 -19.133  0.00  0.00    +0.141 A 
ATOM      2  C   LIG    1       -3.497 -12.474 -19.506  0.00  0.00    -0.185 A 
ATOM      3  C   LIG    1       -3.566 -13.539 -18.598  0.00  0.00    +0.109 A 
ATOM      4  C   LIG    1       -4.084 -13.340 -17.334  0.00  0.00    +0.072 A 
ATOM      5  C   LIG    1       -4.541 -12.079 -16.954  0.00  0.00    +0.163 A 
ATOM      6  C   LIG    1       -4.474 -11.007 -17.858  0.00  0.00    -0.051 A 
ENDROOT
BRANCH   2   7
ATOM      7  C   LIG    1       -2.946 -12.691 -20.851  0.00  0.00    +0.502 C 
ATOM      8  O   LIG    1       -2.119 -11.924 -21.297  0.00  0.00    -0.449 OA
ENDBRANCH   2   7
BRANCH   4   9
ATOM      9  O   LIG    1       -4.150 -14.377 -16.456  0.00  0.00    -0.478 OA
ATOM     10  H   LIG    1       -4.844 -15.020 -16.659  0.00  0.00    +0.395 HD
ENDBRANCH   4   9
BRANCH   5  11
ATOM     11  O   LIG    1       -5.049 -11.888 -15.712  0.00  0.00    -0.478 OA
ATOM     12  H   LIG    1       -4.729 -12.521 -15.055  0.00  0.00    +0.402 HD
ENDBRANCH   5  11
BRANCH   6  13
ATOM     13  C   LIG    1       -4.942  -9.711 -17.469  0.00  0.00    +0.251 C 
ATOM     14  N   LIG    1       -5.314  -8.683 -17.161  0.00  0.00    -0.394 NA
ENDBRANCH   6  13
TORSDOF 4
ENDMDL
