MODEL 1
REMARK VINA RESULT:      -6.4      0.000      0.000
REMARK  Name = CHEMBL1091982
REMARK                            x       y       z     vdW  Elec       q    Type
REMARK                         _______ _______ _______ _____ _____    ______ ____
ROOT
ATOM      1  C   LIG    1        5.977  -7.482 -19.058  0.00  0.00    -0.291 A 
ATOM      2  C   LIG    1        6.615  -6.460 -19.695  0.00  0.00    +0.113 A 
ATOM      3 CL   LIG    1        6.964  -6.575 -21.391  0.00  0.00    -0.030 Cl
ATOM      4  C   LIG    1        6.991  -5.312 -18.974  0.00  0.00    -0.220 A 
ATOM      5  C   LIG    1        7.658  -4.155 -19.456  0.00  0.00    +0.107 A 
ATOM      6  C   LIG    1        7.952  -3.122 -18.622  0.00  0.00    +0.026 A 
ATOM      7  C   LIG    1        7.611  -3.161 -17.265  0.00  0.00    +0.332 A 
ATOM      8  O   LIG    1        7.917  -2.116 -16.452  0.00  0.00    -0.606 OA
ATOM      9  C   LIG    1        6.961  -4.272 -16.760  0.00  0.00    -0.162 A 
ATOM     10  C   LIG    1        6.659  -5.323 -17.599  0.00  0.00    +0.019 A 
ATOM     11  S   LIG    1        5.851  -6.889 -17.380  0.00  0.00    +0.106 S 
ENDROOT
BRANCH   9  12
ATOM     12  N   LIG    1        6.592  -4.333 -15.328  0.00  0.00    +0.059 N 
ATOM     13  O   LIG    1        5.848  -3.503 -14.859  0.00  0.00    -0.159 OA
ATOM     14  O   LIG    1        7.034  -5.213 -14.626  0.00  0.00    -0.155 OA
ENDBRANCH   9  12
BRANCH   1  15
ATOM     15  C   LIG    1        5.504  -8.752 -19.617  0.00  0.00    +0.560 C 
ATOM     16  O   LIG    1        6.296  -9.639 -19.868  0.00  0.00    -0.476 OA
BRANCH  15  17
ATOM     17  O   LIG    1        4.188  -8.936 -19.851  0.00  0.00    -0.347 OA
BRANCH  17  18
ATOM     18  C   LIG    1        3.668  -8.417 -21.076  0.00  0.00    +0.506 C 
BRANCH  18  19
ATOM     19  O   LIG    1        2.240  -8.419 -21.026  0.00  0.00    -0.331 OA
BRANCH  19  20
ATOM     20  C   LIG    1        1.629  -7.224 -21.028  0.00  0.00    +0.456 C 
ATOM     21  O   LIG    1        2.188  -6.259 -20.564  0.00  0.00    -0.470 OA
BRANCH  20  22
ATOM     22  C   LIG    1        0.245  -7.087 -21.609  0.00  0.00    +0.216 C 
BRANCH  22  23
ATOM     23  N   LIG    1        0.346  -6.769 -23.040  0.00  0.00    -0.624 N 
ATOM     24  H   LIG    1       -0.407  -6.149 -23.301  0.00  0.00    +0.443 HD
ATOM     25  H   LIG    1        0.283  -7.620 -23.579  0.00  0.00    +0.445 HD
ATOM     26  H   LIG    1        1.230  -6.320 -23.225  0.00  0.00    +0.446 HD
ENDBRANCH  22  23
BRANCH  22  28
ATOM     27  C   LIG    1       -1.135  -8.446 -20.032  0.00  0.00    +0.076 C 
ATOM     28  C   LIG    1       -0.516  -8.401 -21.431  0.00  0.00    -0.003 C 
ATOM     29  C   LIG    1       -1.624  -8.496 -22.482  0.00  0.00    +0.061 C 
ENDBRANCH  22  28
ENDBRANCH  20  22
ENDBRANCH  19  20
ENDBRANCH  18  19
ENDBRANCH  17  18
ENDBRANCH  15  17
ENDBRANCH   1  15
BRANCH   6  30
ATOM     30  O   LIG    1        8.592  -2.028 -19.116  0.00  0.00    -0.477 OA
ATOM     31  H   LIG    1        8.211  -1.687 -19.936  0.00  0.00    +0.383 HD
ENDBRANCH   6  30
TORSDOF 10
ENDMDL
MODEL 2
REMARK VINA RESULT:      -6.2      1.859      2.835
REMARK  Name = CHEMBL1091982
REMARK                            x       y       z     vdW  Elec       q    Type
REMARK                         _______ _______ _______ _____ _____    ______ ____
ROOT
ATOM      1  C   LIG    1        6.771  -7.032 -20.305  0.00  0.00    -0.291 A 
ATOM      2  C   LIG    1        6.551  -7.097 -18.961  0.00  0.00    +0.113 A 
ATOM      3 CL   LIG    1        5.972  -8.567 -18.244  0.00  0.00    -0.030 Cl
ATOM      4  C   LIG    1        6.793  -5.968 -18.158  0.00  0.00    -0.220 A 
ATOM      5  C   LIG    1        6.624  -5.840 -16.753  0.00  0.00    +0.107 A 
ATOM      6  C   LIG    1        6.905  -4.669 -16.121  0.00  0.00    +0.026 A 
ATOM      7  C   LIG    1        7.369  -3.553 -16.827  0.00  0.00    +0.332 A 
ATOM      8  O   LIG    1        7.641  -2.394 -16.172  0.00  0.00    -0.606 OA
ATOM      9  C   LIG    1        7.545  -3.640 -18.196  0.00  0.00    -0.162 A 
ATOM     10  C   LIG    1        7.262  -4.823 -18.844  0.00  0.00    +0.019 A 
ATOM     11  S   LIG    1        7.351  -5.361 -20.534  0.00  0.00    +0.106 S 
ENDROOT
BRANCH   9  12
ATOM     12  N   LIG    1        8.033  -2.470 -18.961  0.00  0.00    +0.059 N 
ATOM     13  O   LIG    1        7.245  -1.697 -19.452  0.00  0.00    -0.159 OA
ATOM     14  O   LIG    1        9.221  -2.289 -19.094  0.00  0.00    -0.155 OA
ENDBRANCH   9  12
BRANCH   1  15
ATOM     15  C   LIG    1        6.586  -8.081 -21.311  0.00  0.00    +0.560 C 
ATOM     16  O   LIG    1        7.551  -8.578 -21.857  0.00  0.00    -0.476 OA
BRANCH  15  17
ATOM     17  O   LIG    1        5.342  -8.497 -21.630  0.00  0.00    -0.347 OA
BRANCH  17  18
ATOM     18  C   LIG    1        4.318  -7.502 -21.674  0.00  0.00    +0.506 C 
BRANCH  18  19
ATOM     19  O   LIG    1        3.363  -7.755 -20.642  0.00  0.00    -0.331 OA
BRANCH  19  20
ATOM     20  C   LIG    1        2.107  -7.334 -20.857  0.00  0.00    +0.456 C 
ATOM     21  O   LIG    1        1.812  -6.181 -20.647  0.00  0.00    -0.470 OA
BRANCH  20  22
ATOM     22  C   LIG    1        1.064  -8.298 -21.361  0.00  0.00    +0.216 C 
BRANCH  22  23
ATOM     23  N   LIG    1        1.160  -9.558 -20.611  0.00  0.00    -0.624 N 
ATOM     24  H   LIG    1        0.284  -9.738 -20.141  0.00  0.00    +0.443 HD
ATOM     25  H   LIG    1        1.899  -9.488 -19.927  0.00  0.00    +0.445 HD
ATOM     26  H   LIG    1        1.361 -10.314 -21.246  0.00  0.00    +0.446 HD
ENDBRANCH  22  23
BRANCH  22  28
ATOM     27  C   LIG    1       -1.111  -7.786 -22.478  0.00  0.00    +0.076 C 
ATOM     28  C   LIG    1       -0.327  -7.693 -21.167  0.00  0.00    -0.003 C 
ATOM     29  C   LIG    1       -1.070  -8.464 -20.074  0.00  0.00    +0.061 C 
ENDBRANCH  22  28
ENDBRANCH  20  22
ENDBRANCH  19  20
ENDBRANCH  18  19
ENDBRANCH  17  18
ENDBRANCH  15  17
ENDBRANCH   1  15
BRANCH   6  30
ATOM     30  O   LIG    1        6.732  -4.581 -14.775  0.00  0.00    -0.477 OA
ATOM     31  H   LIG    1        6.748  -3.676 -14.435  0.00  0.00    +0.383 HD
ENDBRANCH   6  30
TORSDOF 10
ENDMDL
MODEL 3
REMARK VINA RESULT:      -5.5     10.332     12.892
REMARK  Name = CHEMBL1091982
REMARK                            x       y       z     vdW  Elec       q    Type
REMARK                         _______ _______ _______ _____ _____    ______ ____
ROOT
ATOM      1  C   LIG    1       -2.368 -14.915 -21.031  0.00  0.00    -0.291 A 
ATOM      2  C   LIG    1       -2.885 -15.050 -19.777  0.00  0.00    +0.113 A 
ATOM      3 CL   LIG    1       -3.025 -16.623 -19.057  0.00  0.00    -0.030 Cl
ATOM      4  C   LIG    1       -3.308 -13.910 -19.069  0.00  0.00    -0.220 A 
ATOM      5  C   LIG    1       -3.870 -13.847 -17.766  0.00  0.00    +0.107 A 
ATOM      6  C   LIG    1       -4.230 -12.655 -17.219  0.00  0.00    +0.026 A 
ATOM      7  C   LIG    1       -4.061 -11.453 -17.916  0.00  0.00    +0.332 A 
ATOM      8  O   LIG    1       -4.430 -10.275 -17.348  0.00  0.00    -0.606 OA
ATOM      9  C   LIG    1       -3.518 -11.476 -19.188  0.00  0.00    -0.162 A 
ATOM     10  C   LIG    1       -3.151 -12.679 -19.749  0.00  0.00    +0.019 A 
ATOM     11  S   LIG    1       -2.431 -13.153 -21.302  0.00  0.00    +0.106 S 
ENDROOT
BRANCH   9  12
ATOM     12  N   LIG    1       -3.332 -10.215 -19.942  0.00  0.00    +0.059 N 
ATOM     13  O   LIG    1       -4.033  -9.972 -20.897  0.00  0.00    -0.159 OA
ATOM     14  O   LIG    1       -2.480  -9.428 -19.603  0.00  0.00    -0.155 OA
ENDBRANCH   9  12
BRANCH   1  15
ATOM     15  C   LIG    1       -1.873 -15.961 -21.930  0.00  0.00    +0.560 C 
ATOM     16  O   LIG    1       -0.677 -16.116 -22.084  0.00  0.00    -0.476 OA
BRANCH  15  17
ATOM     17  O   LIG    1       -2.746 -16.753 -22.587  0.00  0.00    -0.347 OA
BRANCH  17  18
ATOM     18  C   LIG    1       -3.627 -16.117 -23.515  0.00  0.00    +0.506 C 
BRANCH  18  19
ATOM     19  O   LIG    1       -3.846 -16.980 -24.632  0.00  0.00    -0.331 OA
BRANCH  19  20
ATOM     20  C   LIG    1       -5.062 -17.538 -24.742  0.00  0.00    +0.456 C 
ATOM     21  O   LIG    1       -5.414 -18.014 -25.795  0.00  0.00    -0.470 OA
BRANCH  20  22
ATOM     22  C   LIG    1       -5.986 -17.571 -23.553  0.00  0.00    +0.216 C 
BRANCH  22  23
ATOM     23  N   LIG    1       -7.366 -17.333 -23.998  0.00  0.00    -0.624 N 
ATOM     24  H   LIG    1       -7.809 -18.215 -24.208  0.00  0.00    +0.443 HD
ATOM     25  H   LIG    1       -7.357 -16.756 -24.826  0.00  0.00    +0.445 HD
ATOM     26  H   LIG    1       -7.880 -16.864 -23.268  0.00  0.00    +0.446 HD
ENDBRANCH  22  23
BRANCH  22  28
ATOM     27  C   LIG    1       -5.375 -18.770 -21.448  0.00  0.00    +0.076 C 
ATOM     28  C   LIG    1       -5.898 -18.940 -22.876  0.00  0.00    -0.003 C 
ATOM     29  C   LIG    1       -7.287 -19.580 -22.838  0.00  0.00    +0.061 C 
ENDBRANCH  22  28
ENDBRANCH  20  22
ENDBRANCH  19  20
ENDBRANCH  18  19
ENDBRANCH  17  18
ENDBRANCH  15  17
ENDBRANCH   1  15
BRANCH   6  30
ATOM     30  O   LIG    1       -4.765 -12.630 -15.969  0.00  0.00    -0.477 OA
ATOM     31  H   LIG    1       -5.177 -11.788 -15.734  0.00  0.00    +0.383 HD
ENDBRANCH   6  30
TORSDOF 10
ENDMDL
MODEL 4
REMARK VINA RESULT:      -5.5     10.032     13.069
REMARK  Name = CHEMBL1091982
REMARK                            x       y       z     vdW  Elec       q    Type
REMARK                         _______ _______ _______ _____ _____    ______ ____
ROOT
ATOM      1  C   LIG    1       -2.621 -14.881 -20.775  0.00  0.00    -0.291 A 
ATOM      2  C   LIG    1       -3.069 -14.602 -19.518  0.00  0.00    +0.113 A 
ATOM      3 CL   LIG    1       -3.328 -15.886 -18.381  0.00  0.00    -0.030 Cl
ATOM      4  C   LIG    1       -3.321 -13.269 -19.146  0.00  0.00    -0.220 A 
ATOM      5  C   LIG    1       -3.788 -12.781 -17.897  0.00  0.00    +0.107 A 
ATOM      6  C   LIG    1       -3.984 -11.451 -17.696  0.00  0.00    +0.026 A 
ATOM      7  C   LIG    1       -3.733 -10.517 -18.707  0.00  0.00    +0.332 A 
ATOM      8  O   LIG    1       -3.937  -9.192 -18.482  0.00  0.00    -0.606 OA
ATOM      9  C   LIG    1       -3.278 -10.954 -19.938  0.00  0.00    -0.162 A 
ATOM     10  C   LIG    1       -3.078 -12.301 -20.150  0.00  0.00    +0.019 A 
ATOM     11  S   LIG    1       -2.514 -13.268 -21.528  0.00  0.00    +0.106 S 
ENDROOT
BRANCH   9  12
ATOM     12  N   LIG    1       -3.008  -9.982 -21.022  0.00  0.00    +0.059 N 
ATOM     13  O   LIG    1       -2.031  -9.272 -20.968  0.00  0.00    -0.159 OA
ATOM     14  O   LIG    1       -3.765  -9.899 -21.961  0.00  0.00    -0.155 OA
ENDBRANCH   9  12
BRANCH   1  15
ATOM     15  C   LIG    1       -2.299 -16.186 -21.359  0.00  0.00    +0.560 C 
ATOM     16  O   LIG    1       -1.326 -16.803 -20.971  0.00  0.00    -0.476 OA
BRANCH  15  17
ATOM     17  O   LIG    1       -3.084 -16.703 -22.328  0.00  0.00    -0.347 OA
BRANCH  17  18
ATOM     18  C   LIG    1       -4.461 -16.908 -22.006  0.00  0.00    +0.506 C 
BRANCH  18  19
ATOM     19  O   LIG    1       -4.563 -17.829 -20.918  0.00  0.00    -0.331 OA
BRANCH  19  20
ATOM     20  C   LIG    1       -5.151 -19.008 -21.171  0.00  0.00    +0.456 C 
ATOM     21  O   LIG    1       -5.365 -19.782 -20.269  0.00  0.00    -0.470 OA
BRANCH  20  22
ATOM     22  C   LIG    1       -5.546 -19.366 -22.580  0.00  0.00    +0.216 C 
BRANCH  22  23
ATOM     23  N   LIG    1       -4.871 -20.609 -22.977  0.00  0.00    -0.624 N 
ATOM     24  H   LIG    1       -4.861 -20.681 -23.984  0.00  0.00    +0.443 HD
ATOM     25  H   LIG    1       -5.364 -21.399 -22.588  0.00  0.00    +0.445 HD
ATOM     26  H   LIG    1       -3.923 -20.602 -22.632  0.00  0.00    +0.446 HD
ENDBRANCH  22  23
BRANCH  22  28
ATOM     27  C   LIG    1       -7.643 -18.665 -23.744  0.00  0.00    +0.076 C 
ATOM     28  C   LIG    1       -7.062 -19.565 -22.651  0.00  0.00    -0.003 C 
ATOM     29  C   LIG    1       -7.369 -21.028 -22.977  0.00  0.00    +0.061 C 
ENDBRANCH  22  28
ENDBRANCH  20  22
ENDBRANCH  19  20
ENDBRANCH  18  19
ENDBRANCH  17  18
ENDBRANCH  15  17
ENDBRANCH   1  15
BRANCH   6  30
ATOM     30  O   LIG    1       -4.432 -11.019 -16.486  0.00  0.00    -0.477 OA
ATOM     31  H   LIG    1       -5.280 -11.399 -16.222  0.00  0.00    +0.383 HD
ENDBRANCH   6  30
TORSDOF 10
ENDMDL
MODEL 5
REMARK VINA RESULT:      -5.5      4.955     10.208
REMARK  Name = CHEMBL1091982
REMARK                            x       y       z     vdW  Elec       q    Type
REMARK                         _______ _______ _______ _____ _____    ______ ____
ROOT
ATOM      1  C   LIG    1       -0.743 -10.106 -22.227  0.00  0.00    -0.291 A 
ATOM      2  C   LIG    1       -1.332  -9.547 -21.133  0.00  0.00    +0.113 A 
ATOM      3 CL   LIG    1       -1.005  -7.894 -20.717  0.00  0.00    -0.030 Cl
ATOM      4  C   LIG    1       -2.204 -10.314 -20.340  0.00  0.00    -0.220 A 
ATOM      5  C   LIG    1       -2.906  -9.915 -19.172  0.00  0.00    +0.107 A 
ATOM      6  C   LIG    1       -3.718 -10.785 -18.515  0.00  0.00    +0.026 A 
ATOM      7  C   LIG    1       -3.893 -12.099 -18.962  0.00  0.00    +0.332 A 
ATOM      8  O   LIG    1       -4.709 -12.951 -18.288  0.00  0.00    -0.606 OA
ATOM      9  C   LIG    1       -3.225 -12.525 -20.097  0.00  0.00    -0.162 A 
ATOM     10  C   LIG    1       -2.399 -11.649 -20.768  0.00  0.00    +0.019 A 
ATOM     11  S   LIG    1       -1.390 -11.768 -22.224  0.00  0.00    +0.106 S 
ENDROOT
BRANCH   9  12
ATOM     12  N   LIG    1       -3.395 -13.911 -20.587  0.00  0.00    +0.059 N 
ATOM     13  O   LIG    1       -2.683 -14.793 -20.165  0.00  0.00    -0.159 OA
ATOM     14  O   LIG    1       -4.246 -14.162 -21.408  0.00  0.00    -0.155 OA
ENDBRANCH   9  12
BRANCH   1  15
ATOM     15  C   LIG    1        0.187  -9.489 -23.178  0.00  0.00    +0.560 C 
ATOM     16  O   LIG    1       -0.141  -9.337 -24.338  0.00  0.00    -0.476 OA
BRANCH  15  17
ATOM     17  O   LIG    1        1.407  -9.089 -22.763  0.00  0.00    -0.347 OA
BRANCH  17  18
ATOM     18  C   LIG    1        1.808  -7.763 -23.112  0.00  0.00    +0.506 C 
BRANCH  18  19
ATOM     19  O   LIG    1        2.956  -7.395 -22.345  0.00  0.00    -0.331 OA
BRANCH  19  20
ATOM     20  C   LIG    1        2.760  -7.126 -21.045  0.00  0.00    +0.456 C 
ATOM     21  O   LIG    1        2.022  -6.227 -20.719  0.00  0.00    -0.470 OA
BRANCH  20  22
ATOM     22  C   LIG    1        3.459  -7.947 -19.992  0.00  0.00    +0.216 C 
BRANCH  22  23
ATOM     23  N   LIG    1        3.109  -9.363 -20.164  0.00  0.00    -0.624 N 
ATOM     24  H   LIG    1        2.187  -9.531 -19.787  0.00  0.00    +0.443 HD
ATOM     25  H   LIG    1        3.780  -9.938 -19.677  0.00  0.00    +0.445 HD
ATOM     26  H   LIG    1        3.118  -9.596 -21.145  0.00  0.00    +0.446 HD
ENDBRANCH  22  23
BRANCH  22  28
ATOM     27  C   LIG    1        5.466  -6.740 -19.121  0.00  0.00    +0.076 C 
ATOM     28  C   LIG    1        4.973  -7.776 -20.134  0.00  0.00    -0.003 C 
ATOM     29  C   LIG    1        5.665  -9.115 -19.871  0.00  0.00    +0.061 C 
ENDBRANCH  22  28
ENDBRANCH  20  22
ENDBRANCH  19  20
ENDBRANCH  18  19
ENDBRANCH  17  18
ENDBRANCH  15  17
ENDBRANCH   1  15
BRANCH   6  30
ATOM     30  O   LIG    1       -4.376 -10.370 -17.398  0.00  0.00    -0.477 OA
ATOM     31  H   LIG    1       -4.588 -11.081 -16.779  0.00  0.00    +0.383 HD
ENDBRANCH   6  30
TORSDOF 10
ENDMDL
MODEL 6
REMARK VINA RESULT:      -5.4      2.306      7.712
REMARK  Name = CHEMBL1091982
REMARK                            x       y       z     vdW  Elec       q    Type
REMARK                         _______ _______ _______ _____ _____    ______ ____
ROOT
ATOM      1  C   LIG    1        5.017  -8.598 -20.137  0.00  0.00    -0.291 A 
ATOM      2  C   LIG    1        4.615  -7.471 -20.790  0.00  0.00    +0.113 A 
ATOM      3 CL   LIG    1        5.768  -6.235 -21.183  0.00  0.00    -0.030 Cl
ATOM      4  C   LIG    1        3.262  -7.311 -21.142  0.00  0.00    -0.220 A 
ATOM      5  C   LIG    1        2.656  -6.219 -21.817  0.00  0.00    +0.107 A 
ATOM      6  C   LIG    1        1.323  -6.218 -22.084  0.00  0.00    +0.026 A 
ATOM      7  C   LIG    1        0.503  -7.288 -21.708  0.00  0.00    +0.332 A 
ATOM      8  O   LIG    1       -0.827  -7.263 -21.986  0.00  0.00    -0.606 OA
ATOM      9  C   LIG    1        1.058  -8.369 -21.049  0.00  0.00    -0.162 A 
ATOM     10  C   LIG    1        2.409  -8.378 -20.773  0.00  0.00    +0.019 A 
ATOM     11  S   LIG    1        3.503  -9.529 -19.980  0.00  0.00    +0.106 S 
ENDROOT
BRANCH   9  12
ATOM     12  N   LIG    1        0.208  -9.511 -20.641  0.00  0.00    +0.059 N 
ATOM     13  O   LIG    1        0.240 -10.543 -21.269  0.00  0.00    -0.159 OA
ATOM     14  O   LIG    1       -0.517  -9.411 -19.679  0.00  0.00    -0.155 OA
ENDBRANCH   9  12
BRANCH   1  15
ATOM     15  C   LIG    1        6.363  -8.959 -19.685  0.00  0.00    +0.560 C 
ATOM     16  O   LIG    1        6.777 -10.090 -19.848  0.00  0.00    -0.476 OA
BRANCH  15  17
ATOM     17  O   LIG    1        7.144  -8.034 -19.088  0.00  0.00    -0.347 OA
BRANCH  17  18
ATOM     18  C   LIG    1        6.749  -7.594 -17.787  0.00  0.00    +0.506 C 
BRANCH  18  19
ATOM     19  O   LIG    1        6.374  -6.217 -17.844  0.00  0.00    -0.331 OA
BRANCH  19  20
ATOM     20  C   LIG    1        6.785  -5.431 -16.837  0.00  0.00    +0.456 C 
ATOM     21  O   LIG    1        7.369  -5.912 -15.895  0.00  0.00    -0.470 OA
BRANCH  20  22
ATOM     22  C   LIG    1        6.521  -3.948 -16.883  0.00  0.00    +0.216 C 
BRANCH  22  23
ATOM     23  N   LIG    1        6.157  -3.475 -15.540  0.00  0.00    -0.624 N 
ATOM     24  H   LIG    1        5.440  -4.073 -15.155  0.00  0.00    +0.443 HD
ATOM     25  H   LIG    1        5.810  -2.529 -15.599  0.00  0.00    +0.445 HD
ATOM     26  H   LIG    1        6.970  -3.497 -14.943  0.00  0.00    +0.446 HD
ENDBRANCH  22  23
BRANCH  22  28
ATOM     27  C   LIG    1        7.718  -3.030 -18.874  0.00  0.00    +0.076 C 
ATOM     28  C   LIG    1        7.780  -3.219 -17.356  0.00  0.00    -0.003 C 
ATOM     29  C   LIG    1        7.864  -1.852 -16.675  0.00  0.00    +0.061 C 
ENDBRANCH  22  28
ENDBRANCH  20  22
ENDBRANCH  19  20
ENDBRANCH  18  19
ENDBRANCH  17  18
ENDBRANCH  15  17
ENDBRANCH   1  15
BRANCH   6  30
ATOM     30  O   LIG    1        0.774  -5.155 -22.732  0.00  0.00    -0.477 OA
ATOM     31  H   LIG    1       -0.191  -5.184 -22.789  0.00  0.00    +0.383 HD
ENDBRANCH   6  30
TORSDOF 10
ENDMDL
MODEL 7
REMARK VINA RESULT:      -5.4     10.211     11.654
REMARK  Name = CHEMBL1091982
REMARK                            x       y       z     vdW  Elec       q    Type
REMARK                         _______ _______ _______ _____ _____    ______ ____
ROOT
ATOM      1  C   LIG    1       -2.885 -11.591 -21.469  0.00  0.00    -0.291 A 
ATOM      2  C   LIG    1       -2.910 -12.655 -20.619  0.00  0.00    +0.113 A 
ATOM      3 CL   LIG    1       -2.263 -14.186 -21.121  0.00  0.00    -0.030 Cl
ATOM      4  C   LIG    1       -3.464 -12.512 -19.334  0.00  0.00    -0.220 A 
ATOM      5  C   LIG    1       -3.582 -13.495 -18.316  0.00  0.00    +0.107 A 
ATOM      6  C   LIG    1       -4.148 -13.193 -17.117  0.00  0.00    +0.026 A 
ATOM      7  C   LIG    1       -4.633 -11.909 -16.843  0.00  0.00    +0.332 A 
ATOM      8  O   LIG    1       -5.195 -11.632 -15.637  0.00  0.00    -0.606 OA
ATOM      9  C   LIG    1       -4.536 -10.925 -17.811  0.00  0.00    -0.162 A 
ATOM     10  C   LIG    1       -3.963 -11.224 -19.029  0.00  0.00    +0.019 A 
ATOM     11  S   LIG    1       -3.639 -10.293 -20.505  0.00  0.00    +0.106 S 
ENDROOT
BRANCH   9  12
ATOM     12  N   LIG    1       -5.043  -9.561 -17.541  0.00  0.00    +0.059 N 
ATOM     13  O   LIG    1       -6.146  -9.408 -17.070  0.00  0.00    -0.159 OA
ATOM     14  O   LIG    1       -4.354  -8.599 -17.791  0.00  0.00    -0.155 OA
ENDBRANCH   9  12
BRANCH   1  15
ATOM     15  C   LIG    1       -2.359 -11.526 -22.835  0.00  0.00    +0.560 C 
ATOM     16  O   LIG    1       -1.380 -10.848 -23.079  0.00  0.00    -0.476 OA
BRANCH  15  17
ATOM     17  O   LIG    1       -2.961 -12.221 -23.823  0.00  0.00    -0.347 OA
BRANCH  17  18
ATOM     18  C   LIG    1       -3.605 -11.464 -24.849  0.00  0.00    +0.506 C 
BRANCH  18  19
ATOM     19  O   LIG    1       -4.642 -10.668 -24.274  0.00  0.00    -0.331 OA
BRANCH  19  20
ATOM     20  C   LIG    1       -5.904 -10.966 -24.620  0.00  0.00    +0.456 C 
ATOM     21  O   LIG    1       -6.184 -11.151 -25.781  0.00  0.00    -0.470 OA
BRANCH  20  22
ATOM     22  C   LIG    1       -6.971 -11.072 -23.561  0.00  0.00    +0.216 C 
BRANCH  22  23
ATOM     23  N   LIG    1       -8.219 -10.482 -24.064  0.00  0.00    -0.624 N 
ATOM     24  H   LIG    1       -8.976 -11.139 -23.940  0.00  0.00    +0.443 HD
ATOM     25  H   LIG    1       -8.118 -10.266 -25.044  0.00  0.00    +0.445 HD
ATOM     26  H   LIG    1       -8.421  -9.637 -23.553  0.00  0.00    +0.446 HD
ENDBRANCH  22  23
BRANCH  22  28
ATOM     27  C   LIG    1       -6.197 -12.987 -22.155  0.00  0.00    +0.076 C 
ATOM     28  C   LIG    1       -7.205 -12.545 -23.218  0.00  0.00    -0.003 C 
ATOM     29  C   LIG    1       -8.626 -12.723 -22.680  0.00  0.00    +0.061 C 
ENDBRANCH  22  28
ENDBRANCH  20  22
ENDBRANCH  19  20
ENDBRANCH  18  19
ENDBRANCH  17  18
ENDBRANCH  15  17
ENDBRANCH   1  15
BRANCH   6  30
ATOM     30  O   LIG    1       -4.246 -14.159 -16.165  0.00  0.00    -0.477 OA
ATOM     31  H   LIG    1       -3.406 -14.378 -15.739  0.00  0.00    +0.383 HD
ENDBRANCH   6  30
TORSDOF 10
ENDMDL
MODEL 8
REMARK VINA RESULT:      -5.4      7.255     10.818
REMARK  Name = CHEMBL1091982
REMARK                            x       y       z     vdW  Elec       q    Type
REMARK                         _______ _______ _______ _____ _____    ______ ____
ROOT
ATOM      1  C   LIG    1       -3.096 -11.890 -21.633  0.00  0.00    -0.291 A 
ATOM      2  C   LIG    1       -3.098 -12.920 -20.740  0.00  0.00    +0.113 A 
ATOM      3 CL   LIG    1       -2.529 -14.488 -21.219  0.00  0.00    -0.030 Cl
ATOM      4  C   LIG    1       -3.564 -12.709 -19.429  0.00  0.00    -0.220 A 
ATOM      5  C   LIG    1       -3.645 -13.647 -18.367  0.00  0.00    +0.107 A 
ATOM      6  C   LIG    1       -4.124 -13.281 -17.148  0.00  0.00    +0.026 A 
ATOM      7  C   LIG    1       -4.552 -11.973 -16.896  0.00  0.00    +0.332 A 
ATOM      8  O   LIG    1       -5.028 -11.632 -15.670  0.00  0.00    -0.606 OA
ATOM      9  C   LIG    1       -4.489 -11.031 -17.908  0.00  0.00    -0.162 A 
ATOM     10  C   LIG    1       -4.005 -11.395 -19.146  0.00  0.00    +0.019 A 
ATOM     11  S   LIG    1       -3.749 -10.533 -20.677  0.00  0.00    +0.106 S 
ENDROOT
BRANCH   9  12
ATOM     12  N   LIG    1       -4.938  -9.642 -17.662  0.00  0.00    +0.059 N 
ATOM     13  O   LIG    1       -6.030  -9.435 -17.187  0.00  0.00    -0.159 OA
ATOM     14  O   LIG    1       -4.213  -8.715 -17.937  0.00  0.00    -0.155 OA
ENDBRANCH   9  12
BRANCH   1  15
ATOM     15  C   LIG    1       -2.658 -11.896 -23.031  0.00  0.00    +0.560 C 
ATOM     16  O   LIG    1       -3.331 -12.451 -23.878  0.00  0.00    -0.476 OA
BRANCH  15  17
ATOM     17  O   LIG    1       -1.507 -11.284 -23.379  0.00  0.00    -0.347 OA
BRANCH  17  18
ATOM     18  C   LIG    1       -1.600  -9.926 -23.814  0.00  0.00    +0.506 C 
BRANCH  18  19
ATOM     19  O   LIG    1       -0.385  -9.550 -24.465  0.00  0.00    -0.331 OA
BRANCH  19  20
ATOM     20  C   LIG    1        0.353  -8.598 -23.875  0.00  0.00    +0.456 C 
ATOM     21  O   LIG    1        0.634  -7.590 -24.479  0.00  0.00    -0.470 OA
BRANCH  20  22
ATOM     22  C   LIG    1        0.831  -8.785 -22.458  0.00  0.00    +0.216 C 
BRANCH  22  23
ATOM     23  N   LIG    1        2.292  -8.941 -22.451  0.00  0.00    -0.624 N 
ATOM     24  H   LIG    1        2.707  -8.199 -21.906  0.00  0.00    +0.443 HD
ATOM     25  H   LIG    1        2.640  -8.899 -23.397  0.00  0.00    +0.445 HD
ATOM     26  H   LIG    1        2.533  -9.832 -22.044  0.00  0.00    +0.446 HD
ENDBRANCH  22  23
BRANCH  22  28
ATOM     27  C   LIG    1       -0.579  -7.972 -20.562  0.00  0.00    +0.076 C 
ATOM     28  C   LIG    1        0.445  -7.562 -21.623  0.00  0.00    -0.003 C 
ATOM     29  C   LIG    1        1.691  -6.999 -20.938  0.00  0.00    +0.061 C 
ENDBRANCH  22  28
ENDBRANCH  20  22
ENDBRANCH  19  20
ENDBRANCH  18  19
ENDBRANCH  17  18
ENDBRANCH  15  17
ENDBRANCH   1  15
BRANCH   6  30
ATOM     30  O   LIG    1       -4.187 -14.205 -16.152  0.00  0.00    -0.477 OA
ATOM     31  H   LIG    1       -3.724 -13.946 -15.344  0.00  0.00    +0.383 HD
ENDBRANCH   6  30
TORSDOF 10
ENDMDL
MODEL 9
REMARK VINA RESULT:      -5.4     10.299     12.262
REMARK  Name = CHEMBL1091982
REMARK                            x       y       z     vdW  Elec       q    Type
REMARK                         _______ _______ _______ _____ _____    ______ ____
ROOT
ATOM      1  C   LIG    1       -2.395 -14.939 -21.084  0.00  0.00    -0.291 A 
ATOM      2  C   LIG    1       -2.914 -15.079 -19.832  0.00  0.00    +0.113 A 
ATOM      3 CL   LIG    1       -3.086 -16.658 -19.132  0.00  0.00    -0.030 Cl
ATOM      4  C   LIG    1       -3.312 -13.940 -19.108  0.00  0.00    -0.220 A 
ATOM      5  C   LIG    1       -3.870 -13.882 -17.804  0.00  0.00    +0.107 A 
ATOM      6  C   LIG    1       -4.204 -12.690 -17.241  0.00  0.00    +0.026 A 
ATOM      7  C   LIG    1       -4.011 -11.483 -17.921  0.00  0.00    +0.332 A 
ATOM      8  O   LIG    1       -4.354 -10.305 -17.337  0.00  0.00    -0.606 OA
ATOM      9  C   LIG    1       -3.470 -11.500 -19.194  0.00  0.00    -0.162 A 
ATOM     10  C   LIG    1       -3.129 -12.704 -19.772  0.00  0.00    +0.019 A 
ATOM     11  S   LIG    1       -2.421 -13.172 -21.331  0.00  0.00    +0.106 S 
ENDROOT
BRANCH   9  12
ATOM     12  N   LIG    1       -3.258 -10.234 -19.931  0.00  0.00    +0.059 N 
ATOM     13  O   LIG    1       -2.374  -9.480 -19.597  0.00  0.00    -0.159 OA
ATOM     14  O   LIG    1       -3.969  -9.954 -20.868  0.00  0.00    -0.155 OA
ENDBRANCH   9  12
BRANCH   1  15
ATOM     15  C   LIG    1       -1.923 -15.983 -21.998  0.00  0.00    +0.560 C 
ATOM     16  O   LIG    1       -0.876 -16.559 -21.775  0.00  0.00    -0.476 OA
BRANCH  15  17
ATOM     17  O   LIG    1       -2.652 -16.305 -23.087  0.00  0.00    -0.347 OA
BRANCH  17  18
ATOM     18  C   LIG    1       -3.837 -17.073 -22.869  0.00  0.00    +0.506 C 
BRANCH  18  19
ATOM     19  O   LIG    1       -4.933 -16.195 -22.605  0.00  0.00    -0.331 OA
BRANCH  19  20
ATOM     20  C   LIG    1       -5.664 -15.799 -23.658  0.00  0.00    +0.456 C 
ATOM     21  O   LIG    1       -6.319 -16.604 -24.275  0.00  0.00    -0.470 OA
BRANCH  20  22
ATOM     22  C   LIG    1       -5.669 -14.349 -24.068  0.00  0.00    +0.216 C 
BRANCH  22  23
ATOM     23  N   LIG    1       -6.337 -14.211 -25.370  0.00  0.00    -0.624 N 
ATOM     24  H   LIG    1       -5.730 -13.718 -26.009  0.00  0.00    +0.443 HD
ATOM     25  H   LIG    1       -7.196 -13.695 -25.255  0.00  0.00    +0.445 HD
ATOM     26  H   LIG    1       -6.543 -15.126 -25.741  0.00  0.00    +0.446 HD
ENDBRANCH  22  23
BRANCH  22  28
ATOM     27  C   LIG    1       -5.792 -12.133 -22.922  0.00  0.00    +0.076 C 
ATOM     28  C   LIG    1       -6.420 -13.524 -23.021  0.00  0.00    -0.003 C 
ATOM     29  C   LIG    1       -7.888 -13.393 -23.431  0.00  0.00    +0.061 C 
ENDBRANCH  22  28
ENDBRANCH  20  22
ENDBRANCH  19  20
ENDBRANCH  18  19
ENDBRANCH  17  18
ENDBRANCH  15  17
ENDBRANCH   1  15
BRANCH   6  30
ATOM     30  O   LIG    1       -4.738 -12.671 -15.989  0.00  0.00    -0.477 OA
ATOM     31  H   LIG    1       -5.701 -12.589 -15.973  0.00  0.00    +0.383 HD
ENDBRANCH   6  30
TORSDOF 10
ENDMDL
