MODEL 1
REMARK VINA RESULT:      -7.6      0.000      0.000
REMARK  Name = CHEMBL350927
REMARK                            x       y       z     vdW  Elec       q    Type
REMARK                         _______ _______ _______ _____ _____    ______ ____
ROOT
ATOM      1  C   LIG    1       -3.362   0.235 -21.001  0.00  0.00    +0.583 C 
ATOM      2  N   LIG    1       -3.134  -0.217 -22.250  0.00  0.00    -0.731 N 
ATOM      3  H   LIG    1       -3.706  -0.901 -22.631  0.00  0.00    +0.396 HD
ATOM      4  O   LIG    1       -2.645   1.092 -20.523  0.00  0.00    -0.549 OA
ENDROOT
BRANCH   2   5
ATOM      5  C   LIG    1       -2.021   0.326 -23.033  0.00  0.00    +0.188 C 
ATOM      6  C   LIG    1       -2.003  -0.329 -24.416  0.00  0.00    +0.023 C 
ATOM      7  C   LIG    1       -0.840   0.238 -25.233  0.00  0.00    -0.012 C 
ATOM      8  C   LIG    1        0.479  -0.053 -24.514  0.00  0.00    +0.013 C 
ATOM      9  C   LIG    1        0.461   0.602 -23.132  0.00  0.00    -0.008 C 
ATOM     10  C   LIG    1        0.286   2.114 -23.286  0.00  0.00    +0.013 C 
ATOM     11  C   LIG    1       -1.033   2.405 -24.005  0.00  0.00    -0.013 C 
ATOM     12  C   LIG    1       -1.015   1.750 -25.388  0.00  0.00    +0.016 C 
ATOM     13  C   LIG    1       -2.195   1.838 -23.188  0.00  0.00    +0.023 C 
ATOM     14  C   LIG    1       -0.702   0.035 -22.314  0.00  0.00    +0.019 C 
ENDBRANCH   2   5
BRANCH   1  16
ATOM     15  C   LIG    1       -5.000   0.410 -19.134  0.00  0.00    +0.199 A 
ATOM     16  C   LIG    1       -4.483  -0.314 -20.213  0.00  0.00    -0.265 A 
ATOM     17  C   LIG    1       -5.030  -1.556 -20.543  0.00  0.00    +0.079 A 
ATOM     18  C   LIG    1       -6.081  -2.064 -19.802  0.00  0.00    -0.023 A 
ATOM     19  C   LIG    1       -6.591  -1.338 -18.728  0.00  0.00    +0.306 A 
ATOM     20  O   LIG    1       -7.624  -1.838 -18.001  0.00  0.00    -0.610 OA
ATOM     21  C   LIG    1       -6.047  -0.103 -18.400  0.00  0.00    -0.202 A 
BRANCH  21  22
ATOM     22  N   LIG    1       -6.593   0.665 -17.257  0.00  0.00    +0.070 N 
ATOM     23  O   LIG    1       -6.397   0.286 -16.126  0.00  0.00    -0.157 OA
ATOM     24  O   LIG    1       -7.236   1.669 -17.456  0.00  0.00    -0.248 OA
ENDBRANCH  21  22
BRANCH  18  25
ATOM     25  O   LIG    1       -6.616  -3.273 -20.121  0.00  0.00    -0.480 OA
ATOM     26  H   LIG    1       -6.511  -3.944 -19.433  0.00  0.00    +0.369 HD
ENDBRANCH  18  25
ENDBRANCH   1  16
TORSDOF 4
ENDMDL
MODEL 2
REMARK VINA RESULT:      -7.5      1.165      2.858
REMARK  Name = CHEMBL350927
REMARK                            x       y       z     vdW  Elec       q    Type
REMARK                         _______ _______ _______ _____ _____    ______ ____
ROOT
ATOM      1  C   LIG    1       -2.948   0.568 -21.199  0.00  0.00    +0.583 C 
ATOM      2  N   LIG    1       -2.684  -0.090 -22.345  0.00  0.00    -0.731 N 
ATOM      3  H   LIG    1       -3.229  -0.849 -22.606  0.00  0.00    +0.396 HD
ATOM      4  O   LIG    1       -2.266   1.519 -20.872  0.00  0.00    -0.549 OA
ENDROOT
BRANCH   2   5
ATOM      5  C   LIG    1       -1.572   0.341 -23.197  0.00  0.00    +0.188 C 
ATOM      6  C   LIG    1       -0.248   0.078 -22.478  0.00  0.00    +0.023 C 
ATOM      7  C   LIG    1        0.914   0.527 -23.367  0.00  0.00    -0.012 C 
ATOM      8  C   LIG    1        0.781   2.023 -23.660  0.00  0.00    +0.013 C 
ATOM      9  C   LIG    1       -0.543   2.286 -24.380  0.00  0.00    -0.008 C 
ATOM     10  C   LIG    1       -0.574   1.504 -25.693  0.00  0.00    +0.013 C 
ATOM     11  C   LIG    1       -0.442   0.008 -25.400  0.00  0.00    -0.013 C 
ATOM     12  C   LIG    1        0.883  -0.255 -24.681  0.00  0.00    +0.016 C 
ATOM     13  C   LIG    1       -1.603  -0.442 -24.511  0.00  0.00    +0.023 C 
ATOM     14  C   LIG    1       -1.704   1.837 -23.490  0.00  0.00    +0.019 C 
ENDBRANCH   2   5
BRANCH   1  16
ATOM     15  C   LIG    1       -4.620  -1.141 -20.504  0.00  0.00    +0.199 A 
ATOM     16  C   LIG    1       -4.068   0.133 -20.341  0.00  0.00    -0.265 A 
ATOM     17  C   LIG    1       -4.578   0.992 -19.365  0.00  0.00    +0.079 A 
ATOM     18  C   LIG    1       -5.625   0.579 -18.563  0.00  0.00    -0.023 A 
ATOM     19  C   LIG    1       -6.171  -0.693 -18.731  0.00  0.00    +0.306 A 
ATOM     20  O   LIG    1       -7.199  -1.098 -17.942  0.00  0.00    -0.610 OA
ATOM     21  C   LIG    1       -5.664  -1.547 -19.701  0.00  0.00    -0.202 A 
BRANCH  21  22
ATOM     22  N   LIG    1       -6.248  -2.896 -19.875  0.00  0.00    +0.070 N 
ATOM     23  O   LIG    1       -5.799  -3.833 -19.257  0.00  0.00    -0.157 OA
ATOM     24  O   LIG    1       -7.173  -3.060 -20.636  0.00  0.00    -0.248 OA
ENDBRANCH  21  22
BRANCH  18  25
ATOM     25  O   LIG    1       -6.123   1.413 -17.611  0.00  0.00    -0.480 OA
ATOM     26  H   LIG    1       -5.683   1.339 -16.753  0.00  0.00    +0.369 HD
ENDBRANCH  18  25
ENDBRANCH   1  16
TORSDOF 4
ENDMDL
MODEL 3
REMARK VINA RESULT:      -6.8      9.122     10.512
REMARK  Name = CHEMBL350927
REMARK                            x       y       z     vdW  Elec       q    Type
REMARK                         _______ _______ _______ _____ _____    ______ ____
ROOT
ATOM      1  C   LIG    1       -2.727  -9.859 -20.457  0.00  0.00    +0.583 C 
ATOM      2  N   LIG    1       -1.598  -9.132 -20.336  0.00  0.00    -0.731 N 
ATOM      3  H   LIG    1       -1.247  -8.924 -19.455  0.00  0.00    +0.396 HD
ATOM      4  O   LIG    1       -3.167 -10.119 -21.559  0.00  0.00    -0.549 OA
ENDROOT
BRANCH   2   5
ATOM      5  C   LIG    1       -0.902  -8.656 -21.533  0.00  0.00    +0.188 C 
ATOM      6  C   LIG    1       -1.929  -8.248 -22.591  0.00  0.00    +0.023 C 
ATOM      7  C   LIG    1       -1.202  -7.750 -23.843  0.00  0.00    -0.012 C 
ATOM      8  C   LIG    1       -0.317  -8.868 -24.396  0.00  0.00    +0.013 C 
ATOM      9  C   LIG    1        0.711  -9.276 -23.338  0.00  0.00    -0.008 C 
ATOM     10  C   LIG    1        1.578  -8.069 -22.978  0.00  0.00    +0.013 C 
ATOM     11  C   LIG    1        0.692  -6.951 -22.424  0.00  0.00    -0.013 C 
ATOM     12  C   LIG    1       -0.334  -6.543 -23.482  0.00  0.00    +0.016 C 
ATOM     13  C   LIG    1       -0.034  -7.449 -21.173  0.00  0.00    +0.023 C 
ATOM     14  C   LIG    1       -0.016  -9.774 -22.087  0.00  0.00    +0.019 C 
ENDBRANCH   2   5
BRANCH   1  16
ATOM     15  C   LIG    1       -3.370 -11.689 -18.896  0.00  0.00    +0.199 A 
ATOM     16  C   LIG    1       -3.429 -10.338 -19.250  0.00  0.00    -0.265 A 
ATOM     17  C   LIG    1       -4.152  -9.443 -18.458  0.00  0.00    +0.079 A 
ATOM     18  C   LIG    1       -4.806  -9.896 -17.328  0.00  0.00    -0.023 A 
ATOM     19  C   LIG    1       -4.743 -11.244 -16.981  0.00  0.00    +0.306 A 
ATOM     20  O   LIG    1       -5.386 -11.688 -15.870  0.00  0.00    -0.610 OA
ATOM     21  C   LIG    1       -4.024 -12.134 -17.768  0.00  0.00    -0.202 A 
BRANCH  21  22
ATOM     22  N   LIG    1       -3.961 -13.566 -17.394  0.00  0.00    +0.070 N 
ATOM     23  O   LIG    1       -3.830 -13.883 -16.235  0.00  0.00    -0.157 OA
ATOM     24  O   LIG    1       -4.040 -14.417 -18.249  0.00  0.00    -0.248 OA
ENDBRANCH  21  22
BRANCH  18  25
ATOM     25  O   LIG    1       -5.511  -9.026 -16.555  0.00  0.00    -0.480 OA
ATOM     26  H   LIG    1       -5.151  -8.128 -16.545  0.00  0.00    +0.369 HD
ENDBRANCH  18  25
ENDBRANCH   1  16
TORSDOF 4
ENDMDL
MODEL 4
REMARK VINA RESULT:      -6.6     13.719     15.923
REMARK  Name = CHEMBL350927
REMARK                            x       y       z     vdW  Elec       q    Type
REMARK                         _______ _______ _______ _____ _____    ______ ____
ROOT
ATOM      1  C   LIG    1       -3.044 -15.195 -19.136  0.00  0.00    +0.583 C 
ATOM      2  N   LIG    1       -3.286 -15.565 -20.409  0.00  0.00    -0.731 N 
ATOM      3  H   LIG    1       -3.720 -14.948 -21.019  0.00  0.00    +0.396 HD
ATOM      4  O   LIG    1       -2.501 -15.967 -18.371  0.00  0.00    -0.549 OA
ENDROOT
BRANCH   2   5
ATOM      5  C   LIG    1       -2.895 -16.899 -20.871  0.00  0.00    +0.188 C 
ATOM      6  C   LIG    1       -2.963 -16.950 -22.399  0.00  0.00    +0.023 C 
ATOM      7  C   LIG    1       -2.555 -18.343 -22.881  0.00  0.00    -0.012 C 
ATOM      8  C   LIG    1       -3.508 -19.386 -22.294  0.00  0.00    +0.013 C 
ATOM      9  C   LIG    1       -3.439 -19.336 -20.766  0.00  0.00    -0.008 C 
ATOM     10  C   LIG    1       -2.011 -19.634 -20.309  0.00  0.00    +0.013 C 
ATOM     11  C   LIG    1       -1.058 -18.591 -20.897  0.00  0.00    -0.013 C 
ATOM     12  C   LIG    1       -1.126 -18.643 -22.425  0.00  0.00    +0.016 C 
ATOM     13  C   LIG    1       -1.466 -17.199 -20.414  0.00  0.00    +0.023 C 
ATOM     14  C   LIG    1       -3.848 -17.942 -20.283  0.00  0.00    +0.019 C 
ENDBRANCH   2   5
BRANCH   1  16
ATOM     15  C   LIG    1       -3.222 -12.736 -19.487  0.00  0.00    +0.199 A 
ATOM     16  C   LIG    1       -3.439 -13.851 -18.671  0.00  0.00    -0.265 A 
ATOM     17  C   LIG    1       -4.031 -13.689 -17.417  0.00  0.00    +0.079 A 
ATOM     18  C   LIG    1       -4.401 -12.429 -16.987  0.00  0.00    -0.023 A 
ATOM     19  C   LIG    1       -4.182 -11.322 -17.805  0.00  0.00    +0.306 A 
ATOM     20  O   LIG    1       -4.545 -10.084 -17.382  0.00  0.00    -0.610 OA
ATOM     21  C   LIG    1       -3.593 -11.482 -19.052  0.00  0.00    -0.202 A 
BRANCH  21  22
ATOM     22  N   LIG    1       -3.361 -10.303 -19.917  0.00  0.00    +0.070 N 
ATOM     23  O   LIG    1       -4.015 -10.154 -20.923  0.00  0.00    -0.157 OA
ATOM     24  O   LIG    1       -2.517  -9.490 -19.618  0.00  0.00    -0.248 OA
ENDBRANCH  21  22
BRANCH  18  25
ATOM     25  O   LIG    1       -4.979 -12.268 -15.766  0.00  0.00    -0.480 OA
ATOM     26  H   LIG    1       -5.537 -11.482 -15.695  0.00  0.00    +0.369 HD
ENDBRANCH  18  25
ENDBRANCH   1  16
TORSDOF 4
ENDMDL
MODEL 5
REMARK VINA RESULT:      -6.6      8.894     10.135
REMARK  Name = CHEMBL350927
REMARK                            x       y       z     vdW  Elec       q    Type
REMARK                         _______ _______ _______ _____ _____    ______ ____
ROOT
ATOM      1  C   LIG    1       -2.519 -10.401 -19.992  0.00  0.00    +0.583 C 
ATOM      2  N   LIG    1       -1.915  -9.204 -20.128  0.00  0.00    -0.731 N 
ATOM      3  H   LIG    1       -2.065  -8.507 -19.470  0.00  0.00    +0.396 HD
ATOM      4  O   LIG    1       -2.332 -11.274 -20.816  0.00  0.00    -0.549 OA
ENDROOT
BRANCH   2   5
ATOM      5  C   LIG    1       -1.032  -8.955 -21.271  0.00  0.00    +0.188 C 
ATOM      6  C   LIG    1       -0.001 -10.080 -21.372  0.00  0.00    +0.023 C 
ATOM      7  C   LIG    1        0.921  -9.821 -22.565  0.00  0.00    -0.012 C 
ATOM      8  C   LIG    1        1.642  -8.485 -22.372  0.00  0.00    +0.013 C 
ATOM      9  C   LIG    1        0.611  -7.359 -22.270  0.00  0.00    -0.008 C 
ATOM     10  C   LIG    1       -0.219  -7.311 -23.554  0.00  0.00    +0.013 C 
ATOM     11  C   LIG    1       -0.939  -8.647 -23.748  0.00  0.00    -0.013 C 
ATOM     12  C   LIG    1        0.093  -9.772 -23.850  0.00  0.00    +0.016 C 
ATOM     13  C   LIG    1       -1.861  -8.906 -22.556  0.00  0.00    +0.023 C 
ATOM     14  C   LIG    1       -0.312  -7.619 -21.077  0.00  0.00    +0.019 C 
ENDBRANCH   2   5
BRANCH   1  16
ATOM     15  C   LIG    1       -4.334  -9.679 -18.449  0.00  0.00    +0.199 A 
ATOM     16  C   LIG    1       -3.409 -10.650 -18.841  0.00  0.00    -0.265 A 
ATOM     17  C   LIG    1       -3.330 -11.857 -18.142  0.00  0.00    +0.079 A 
ATOM     18  C   LIG    1       -4.166 -12.086 -17.067  0.00  0.00    -0.023 A 
ATOM     19  C   LIG    1       -5.087 -11.113 -16.681  0.00  0.00    +0.306 A 
ATOM     20  O   LIG    1       -5.909 -11.340 -15.623  0.00  0.00    -0.610 OA
ATOM     21  C   LIG    1       -5.166  -9.914 -17.375  0.00  0.00    -0.202 A 
BRANCH  21  22
ATOM     22  N   LIG    1       -6.145  -8.883 -16.961  0.00  0.00    +0.070 N 
ATOM     23  O   LIG    1       -6.173  -7.814 -17.525  0.00  0.00    -0.157 OA
ATOM     24  O   LIG    1       -6.915  -9.111 -16.057  0.00  0.00    -0.248 OA
ENDBRANCH  21  22
BRANCH  18  25
ATOM     25  O   LIG    1       -4.091 -13.261 -16.384  0.00  0.00    -0.480 OA
ATOM     26  H   LIG    1       -4.950 -13.673 -16.216  0.00  0.00    +0.369 HD
ENDBRANCH  18  25
ENDBRANCH   1  16
TORSDOF 4
ENDMDL
MODEL 6
REMARK VINA RESULT:      -6.2     13.980     16.251
REMARK  Name = CHEMBL350927
REMARK                            x       y       z     vdW  Elec       q    Type
REMARK                         _______ _______ _______ _____ _____    ______ ____
ROOT
ATOM      1  C   LIG    1       -3.015 -15.428 -19.390  0.00  0.00    +0.583 C 
ATOM      2  N   LIG    1       -3.467 -15.936 -20.553  0.00  0.00    -0.731 N 
ATOM      3  H   LIG    1       -4.058 -15.410 -21.115  0.00  0.00    +0.396 HD
ATOM      4  O   LIG    1       -2.276 -16.086 -18.685  0.00  0.00    -0.549 OA
ENDROOT
BRANCH   2   5
ATOM      5  C   LIG    1       -3.067 -17.283 -20.969  0.00  0.00    +0.188 C 
ATOM      6  C   LIG    1       -1.560 -17.451 -20.766  0.00  0.00    +0.023 C 
ATOM      7  C   LIG    1       -1.141 -18.858 -21.200  0.00  0.00    -0.012 C 
ATOM      8  C   LIG    1       -1.482 -19.058 -22.678  0.00  0.00    +0.013 C 
ATOM      9  C   LIG    1       -2.989 -18.889 -22.881  0.00  0.00    -0.008 C 
ATOM     10  C   LIG    1       -3.736 -19.925 -22.040  0.00  0.00    +0.013 C 
ATOM     11  C   LIG    1       -3.396 -19.725 -20.562  0.00  0.00    -0.013 C 
ATOM     12  C   LIG    1       -1.888 -19.895 -20.359  0.00  0.00    +0.016 C 
ATOM     13  C   LIG    1       -3.814 -18.320 -20.128  0.00  0.00    +0.023 C 
ATOM     14  C   LIG    1       -3.408 -17.483 -22.447  0.00  0.00    +0.019 C 
ENDBRANCH   2   5
BRANCH   1  16
ATOM     15  C   LIG    1       -3.261 -12.993 -19.846  0.00  0.00    +0.199 A 
ATOM     16  C   LIG    1       -3.420 -14.071 -18.971  0.00  0.00    -0.265 A 
ATOM     17  C   LIG    1       -3.962 -13.862 -17.701  0.00  0.00    +0.079 A 
ATOM     18  C   LIG    1       -4.341 -12.590 -17.315  0.00  0.00    -0.023 A 
ATOM     19  C   LIG    1       -4.180 -11.519 -18.192  0.00  0.00    +0.306 A 
ATOM     20  O   LIG    1       -4.553 -10.270 -17.812  0.00  0.00    -0.610 OA
ATOM     21  C   LIG    1       -3.641 -11.727 -19.455  0.00  0.00    -0.202 A 
BRANCH  21  22
ATOM     22  N   LIG    1       -3.472 -10.586 -20.383  0.00  0.00    +0.070 N 
ATOM     23  O   LIG    1       -2.535  -9.834 -20.251  0.00  0.00    -0.157 OA
ATOM     24  O   LIG    1       -4.273 -10.405 -21.271  0.00  0.00    -0.248 OA
ENDBRANCH  21  22
BRANCH  18  25
ATOM     25  O   LIG    1       -4.870 -12.384 -16.079  0.00  0.00    -0.480 OA
ATOM     26  H   LIG    1       -5.386 -13.129 -15.742  0.00  0.00    +0.369 HD
ENDBRANCH  18  25
ENDBRANCH   1  16
TORSDOF 4
ENDMDL
MODEL 7
REMARK VINA RESULT:      -6.0      9.217     10.351
REMARK  Name = CHEMBL350927
REMARK                            x       y       z     vdW  Elec       q    Type
REMARK                         _______ _______ _______ _____ _____    ______ ____
ROOT
ATOM      1  C   LIG    1       -1.764  -9.878 -20.740  0.00  0.00    +0.583 C 
ATOM      2  N   LIG    1       -0.454  -9.756 -20.450  0.00  0.00    -0.731 N 
ATOM      3  H   LIG    1       -0.066 -10.277 -19.729  0.00  0.00    +0.396 HD
ATOM      4  O   LIG    1       -2.251  -9.226 -21.643  0.00  0.00    -0.549 OA
ENDROOT
BRANCH   2   5
ATOM      5  C   LIG    1        0.385  -8.836 -21.222  0.00  0.00    +0.188 C 
ATOM      6  C   LIG    1        0.462  -9.314 -22.674  0.00  0.00    +0.023 C 
ATOM      7  C   LIG    1        1.338  -8.354 -23.481  0.00  0.00    -0.012 C 
ATOM      8  C   LIG    1        2.745  -8.320 -22.881  0.00  0.00    +0.013 C 
ATOM      9  C   LIG    1        2.668  -7.842 -21.429  0.00  0.00    -0.008 C 
ATOM     10  C   LIG    1        2.060  -6.439 -21.386  0.00  0.00    +0.013 C 
ATOM     11  C   LIG    1        0.653  -6.473 -21.986  0.00  0.00    -0.013 C 
ATOM     12  C   LIG    1        0.730  -6.951 -23.438  0.00  0.00    +0.016 C 
ATOM     13  C   LIG    1       -0.222  -7.433 -21.179  0.00  0.00    +0.023 C 
ATOM     14  C   LIG    1        1.792  -8.802 -20.622  0.00  0.00    +0.019 C 
ENDBRANCH   2   5
BRANCH   1  16
ATOM     15  C   LIG    1       -3.333 -10.334 -18.861  0.00  0.00    +0.199 A 
ATOM     16  C   LIG    1       -2.609 -10.804 -19.961  0.00  0.00    -0.265 A 
ATOM     17  C   LIG    1       -2.687 -12.152 -20.319  0.00  0.00    +0.079 A 
ATOM     18  C   LIG    1       -3.480 -13.014 -19.587  0.00  0.00    -0.023 A 
ATOM     19  C   LIG    1       -4.200 -12.539 -18.492  0.00  0.00    +0.306 A 
ATOM     20  O   LIG    1       -4.979 -13.387 -17.773  0.00  0.00    -0.610 OA
ATOM     21  C   LIG    1       -4.122 -11.199 -18.135  0.00  0.00    -0.202 A 
BRANCH  21  22
ATOM     22  N   LIG    1       -4.888 -10.699 -16.971  0.00  0.00    +0.070 N 
ATOM     23  O   LIG    1       -5.253 -11.468 -16.112  0.00  0.00    -0.157 OA
ATOM     24  O   LIG    1       -5.149  -9.522 -16.880  0.00  0.00    -0.248 OA
ENDBRANCH  21  22
BRANCH  18  25
ATOM     25  O   LIG    1       -3.559 -14.327 -19.934  0.00  0.00    -0.480 OA
ATOM     26  H   LIG    1       -4.321 -14.789 -19.558  0.00  0.00    +0.369 HD
ENDBRANCH  18  25
ENDBRANCH   1  16
TORSDOF 4
ENDMDL
MODEL 8
REMARK VINA RESULT:      -5.9      9.346     12.102
REMARK  Name = CHEMBL350927
REMARK                            x       y       z     vdW  Elec       q    Type
REMARK                         _______ _______ _______ _____ _____    ______ ____
ROOT
ATOM      1  C   LIG    1       -1.611  -9.451 -21.409  0.00  0.00    +0.583 C 
ATOM      2  N   LIG    1       -2.240 -10.279 -22.267  0.00  0.00    -0.731 N 
ATOM      3  H   LIG    1       -2.244 -10.081 -23.217  0.00  0.00    +0.396 HD
ATOM      4  O   LIG    1       -1.606  -9.697 -20.220  0.00  0.00    -0.549 OA
ENDROOT
BRANCH   2   5
ATOM      5  C   LIG    1       -2.917 -11.477 -21.765  0.00  0.00    +0.188 C 
ATOM      6  C   LIG    1       -3.801 -12.062 -22.868  0.00  0.00    +0.023 C 
ATOM      7  C   LIG    1       -4.509 -13.314 -22.344  0.00  0.00    -0.012 C 
ATOM      8  C   LIG    1       -5.376 -12.942 -21.140  0.00  0.00    +0.013 C 
ATOM      9  C   LIG    1       -4.492 -12.357 -20.036  0.00  0.00    -0.008 C 
ATOM     10  C   LIG    1       -3.449 -13.393 -19.614  0.00  0.00    +0.013 C 
ATOM     11  C   LIG    1       -2.582 -13.764 -20.819  0.00  0.00    -0.013 C 
ATOM     12  C   LIG    1       -3.466 -14.351 -21.922  0.00  0.00    +0.016 C 
ATOM     13  C   LIG    1       -1.875 -12.514 -21.343  0.00  0.00    +0.023 C 
ATOM     14  C   LIG    1       -3.785 -11.105 -20.561  0.00  0.00    +0.019 C 
ENDBRANCH   2   5
BRANCH   1  16
ATOM     15  C   LIG    1       -1.274  -7.718 -23.165  0.00  0.00    +0.199 A 
ATOM     16  C   LIG    1       -0.930  -8.243 -21.916  0.00  0.00    -0.265 A 
ATOM     17  C   LIG    1        0.059  -7.623 -21.149  0.00  0.00    +0.079 A 
ATOM     18  C   LIG    1        0.692  -6.491 -21.628  0.00  0.00    -0.023 A 
ATOM     19  C   LIG    1        0.345  -5.973 -22.874  0.00  0.00    +0.306 A 
ATOM     20  O   LIG    1        0.968  -4.861 -23.343  0.00  0.00    -0.610 OA
ATOM     21  C   LIG    1       -0.638  -6.590 -23.636  0.00  0.00    -0.202 A 
BRANCH  21  22
ATOM     22  N   LIG    1       -1.003  -6.036 -24.960  0.00  0.00    +0.070 N 
ATOM     23  O   LIG    1       -1.924  -5.258 -25.056  0.00  0.00    -0.157 OA
ATOM     24  O   LIG    1       -0.380  -6.362 -25.944  0.00  0.00    -0.248 OA
ENDBRANCH  21  22
BRANCH  18  25
ATOM     25  O   LIG    1        1.655  -5.885 -20.883  0.00  0.00    -0.480 OA
ATOM     26  H   LIG    1        1.455  -5.845 -19.938  0.00  0.00    +0.369 HD
ENDBRANCH  18  25
ENDBRANCH   1  16
TORSDOF 4
ENDMDL
MODEL 9
REMARK VINA RESULT:      -5.8      9.482     11.056
REMARK  Name = CHEMBL350927
REMARK                            x       y       z     vdW  Elec       q    Type
REMARK                         _______ _______ _______ _____ _____    ______ ____
ROOT
ATOM      1  C   LIG    1       -1.460  -9.688 -20.843  0.00  0.00    +0.583 C 
ATOM      2  N   LIG    1       -0.150  -9.623 -20.534  0.00  0.00    -0.731 N 
ATOM      3  H   LIG    1        0.207 -10.174 -19.819  0.00  0.00    +0.396 HD
ATOM      4  O   LIG    1       -1.909  -8.999 -21.738  0.00  0.00    -0.549 OA
ENDROOT
BRANCH   2   5
ATOM      5  C   LIG    1        0.734  -8.722 -21.277  0.00  0.00    +0.188 C 
ATOM      6  C   LIG    1        0.191  -7.294 -21.195  0.00  0.00    +0.023 C 
ATOM      7  C   LIG    1        1.114  -6.352 -21.971  0.00  0.00    -0.012 C 
ATOM      8  C   LIG    1        1.176  -6.791 -23.435  0.00  0.00    +0.013 C 
ATOM      9  C   LIG    1        1.720  -8.219 -23.517  0.00  0.00    -0.008 C 
ATOM     10  C   LIG    1        3.123  -8.266 -22.909  0.00  0.00    +0.013 C 
ATOM     11  C   LIG    1        3.060  -7.827 -21.445  0.00  0.00    -0.013 C 
ATOM     12  C   LIG    1        2.517  -6.399 -21.364  0.00  0.00    +0.016 C 
ATOM     13  C   LIG    1        2.138  -8.768 -20.670  0.00  0.00    +0.023 C 
ATOM     14  C   LIG    1        0.797  -9.160 -22.741  0.00  0.00    +0.019 C 
ENDBRANCH   2   5
BRANCH   1  16
ATOM     15  C   LIG    1       -2.532 -11.912 -20.527  0.00  0.00    +0.199 A 
ATOM     16  C   LIG    1       -2.351 -10.596 -20.094  0.00  0.00    -0.265 A 
ATOM     17  C   LIG    1       -3.013 -10.142 -18.951  0.00  0.00    +0.079 A 
ATOM     18  C   LIG    1       -3.845 -10.997 -18.252  0.00  0.00    -0.023 A 
ATOM     19  C   LIG    1       -4.021 -12.308 -18.689  0.00  0.00    +0.306 A 
ATOM     20  O   LIG    1       -4.839 -13.147 -18.001  0.00  0.00    -0.610 OA
ATOM     21  C   LIG    1       -3.363 -12.760 -19.825  0.00  0.00    -0.202 A 
BRANCH  21  22
ATOM     22  N   LIG    1       -3.554 -14.154 -20.285  0.00  0.00    +0.070 N 
ATOM     23  O   LIG    1       -4.225 -14.380 -21.265  0.00  0.00    -0.157 OA
ATOM     24  O   LIG    1       -3.041 -15.066 -19.680  0.00  0.00    -0.248 OA
ENDBRANCH  21  22
BRANCH  18  25
ATOM     25  O   LIG    1       -4.491 -10.557 -17.139  0.00  0.00    -0.480 OA
ATOM     26  H   LIG    1       -5.441 -10.736 -17.139  0.00  0.00    +0.369 HD
ENDBRANCH  18  25
ENDBRANCH   1  16
TORSDOF 4
ENDMDL
